data_graphite_ortho

_audit_creation_method RASPA-1.0
_audit_creation_date 2012-2-3
_audit_author_name 'David Dubbeldam'

_cell_length_a    39.36    
_cell_length_b    38.34    
_cell_length_c    25.2    
_cell_angle_alpha 90
_cell_angle_beta  90
_cell_angle_gamma 90
_cell_volume      38028.37      

_symmetry_cell_setting          triclinic
_symmetry_space_group_name_Hall 'P 1'
_symmetry_space_group_name_H-M  'P 1'
_symmetry_Int_Tables_number     1

_symmetry_equiv_pos_as_xyz 'x,y,z'

loop_
_atom_site_label
_atom_site_type_symbol
_atom_site_fract_x
_atom_site_fract_y
_atom_site_fract_z
_atom_site_charge
C_FG        C        0.0        0.018519        0.07020630952380952        0.2        
C2        C        0.03125        0.074075        0.07020630952380952        0        
C3        C        0.0        0.092592        0.07020630952380952        0        
C4        C        0.03125        0.037037        0.07020630952380952        0        
C_FG        C        0.0        0.12963        0.07020630952380952        0.2        
C2        C        0.03125        0.185185        0.07020630952380952        0        
C3        C        0.0        0.203703        0.07020630952380952        0        
C4        C        0.03125        0.148148        0.07020630952380952        0        
C_FG        C        0.0        0.24074099999999998        0.07020630952380952        0.2        
C2        C        0.03125        0.296297        0.07020630952380952        0        
C3        C        0.0        0.314815        0.07020630952380952        0        
C4        C        0.03125        0.259259        0.07020630952380952        0        
C_FG        C        0.0        0.351852        0.07020630952380952        0.2        
C2        C        0.03125        0.407408        0.07020630952380952        0        
C3        C        0.0        0.42592500000000005        0.07020630952380952        0        
C4        C        0.03125        0.37037        0.07020630952380952        0        
C_FG        C        0.0        0.46296300000000007        0.07020630952380952        0.2        
C2        C        0.03125        0.518519        0.07020630952380952        0        
C3        C        0.0        0.537037        0.07020630952380952        0        
C4        C        0.03125        0.481481        0.07020630952380952        0        
C_FG        C        0.0        0.574075        0.07020630952380952        0.2        
C2        C        0.03125        0.62963        0.07020630952380952        0        
C3        C        0.0        0.648148        0.07020630952380952        0        
C4        C        0.03125        0.592592        0.07020630952380952        0        
C1        C        0.0625        0.018519        0.07020630952380952        0        
C2        C        0.09375        0.074075        0.07020630952380952        0        
C3        C        0.0625        0.092592        0.07020630952380952        0        
C4        C        0.09375        0.037037        0.07020630952380952        0        
C1        C        0.0625        0.12963        0.07020630952380952        0        
C2        C        0.09375        0.185185        0.07020630952380952        0        
C3        C        0.0625        0.203703        0.07020630952380952        0        
C4        C        0.09375        0.148148        0.07020630952380952        0        
C1        C        0.0625        0.24074099999999998        0.07020630952380952        0        
C2        C        0.09375        0.296297        0.07020630952380952        0        
C3        C        0.0625        0.314815        0.07020630952380952        0        
C4        C        0.09375        0.259259        0.07020630952380952        0        
C1        C        0.0625        0.351852        0.07020630952380952        0        
C2        C        0.09375        0.407408        0.07020630952380952        0        
C3        C        0.0625        0.42592500000000005        0.07020630952380952        0        
C4        C        0.09375        0.37037        0.07020630952380952        0        
C1        C        0.0625        0.46296300000000007        0.07020630952380952        0        
C2        C        0.09375        0.518519        0.07020630952380952        0        
C3        C        0.0625        0.537037        0.07020630952380952        0        
C4        C        0.09375        0.481481        0.07020630952380952        0        
C1        C        0.0625        0.574075        0.07020630952380952        0        
C2        C        0.09375        0.62963        0.07020630952380952        0        
C3        C        0.0625        0.648148        0.07020630952380952        0        
C4        C        0.09375        0.592592        0.07020630952380952        0        
C_FG        C        0.125        0.018519        0.07020630952380952        0.2        
C2        C        0.15625        0.074075        0.07020630952380952        0        
C3        C        0.125        0.092592        0.07020630952380952        0        
C4        C        0.15625        0.037037        0.07020630952380952        0        
C_FG        C        0.125        0.12963        0.07020630952380952        0.2        
C2        C        0.15625        0.185185        0.07020630952380952        0        
C3        C        0.125        0.203703        0.07020630952380952        0        
C4        C        0.15625        0.148148        0.07020630952380952        0        
C_FG        C        0.125        0.24074099999999998        0.07020630952380952        0.2        
C2        C        0.15625        0.296297        0.07020630952380952        0        
C3        C        0.125        0.314815        0.07020630952380952        0        
C4        C        0.15625        0.259259        0.07020630952380952        0        
C_FG        C        0.125        0.351852        0.07020630952380952        0.2        
C2        C        0.15625        0.407408        0.07020630952380952        0        
C3        C        0.125        0.42592500000000005        0.07020630952380952        0        
C4        C        0.15625        0.37037        0.07020630952380952        0        
C_FG        C        0.125        0.46296300000000007        0.07020630952380952        0.2        
C2        C        0.15625        0.518519        0.07020630952380952        0        
C3        C        0.125        0.537037        0.07020630952380952        0        
C4        C        0.15625        0.481481        0.07020630952380952        0        
C_FG        C        0.125        0.574075        0.07020630952380952        0.2        
C2        C        0.15625        0.62963        0.07020630952380952        0        
C3        C        0.125        0.648148        0.07020630952380952        0        
C4        C        0.15625        0.592592        0.07020630952380952        0        
C1        C        0.1875        0.018519        0.07020630952380952        0        
C2        C        0.21875        0.074075        0.07020630952380952        0        
C3        C        0.1875        0.092592        0.07020630952380952        0        
C4        C        0.21875        0.037037        0.07020630952380952        0        
C1        C        0.1875        0.12963        0.07020630952380952        0        
C2        C        0.21875        0.185185        0.07020630952380952        0        
C3        C        0.1875        0.203703        0.07020630952380952        0        
C4        C        0.21875        0.148148        0.07020630952380952        0        
C1        C        0.1875        0.24074099999999998        0.07020630952380952        0        
C2        C        0.21875        0.296297        0.07020630952380952        0        
C3        C        0.1875        0.314815        0.07020630952380952        0        
C4        C        0.21875        0.259259        0.07020630952380952        0        
C1        C        0.1875        0.351852        0.07020630952380952        0        
C2        C        0.21875        0.407408        0.07020630952380952        0        
C3        C        0.1875        0.42592500000000005        0.07020630952380952        0        
C4        C        0.21875        0.37037        0.07020630952380952        0        
C1        C        0.1875        0.46296300000000007        0.07020630952380952        0        
C2        C        0.21875        0.518519        0.07020630952380952        0        
C3        C        0.1875        0.537037        0.07020630952380952        0        
C4        C        0.21875        0.481481        0.07020630952380952        0        
C1        C        0.1875        0.574075        0.07020630952380952        0        
C2        C        0.21875        0.62963        0.07020630952380952        0        
C3        C        0.1875        0.648148        0.07020630952380952        0        
C4        C        0.21875        0.592592        0.07020630952380952        0        
C_FG        C        0.25        0.018519        0.07020630952380952        0.2        
C2        C        0.28125        0.074075        0.07020630952380952        0        
C3        C        0.25        0.092592        0.07020630952380952        0        
C4        C        0.28125        0.037037        0.07020630952380952        0        
C_FG        C        0.25        0.12963        0.07020630952380952        0.2        
C2        C        0.28125        0.185185        0.07020630952380952        0        
C3        C        0.25        0.203703        0.07020630952380952        0        
C4        C        0.28125        0.148148        0.07020630952380952        0        
C_FG        C        0.25        0.24074099999999998        0.07020630952380952        0.2        
C2        C        0.28125        0.296297        0.07020630952380952        0        
C3        C        0.25        0.314815        0.07020630952380952        0        
C4        C        0.28125        0.259259        0.07020630952380952        0        
C_FG        C        0.25        0.351852        0.07020630952380952        0.2        
C2        C        0.28125        0.407408        0.07020630952380952        0        
C3        C        0.25        0.42592500000000005        0.07020630952380952        0        
C4        C        0.28125        0.37037        0.07020630952380952        0        
C_FG        C        0.25        0.46296300000000007        0.07020630952380952        0.2        
C2        C        0.28125        0.518519        0.07020630952380952        0        
C3        C        0.25        0.537037        0.07020630952380952        0        
C4        C        0.28125        0.481481        0.07020630952380952        0        
C_FG        C        0.25        0.574075        0.07020630952380952        0.2        
C2        C        0.28125        0.62963        0.07020630952380952        0        
C3        C        0.25        0.648148        0.07020630952380952        0        
C4        C        0.28125        0.592592        0.07020630952380952        0        
C1        C        0.3125        0.018519        0.07020630952380952        0        
C2        C        0.34375        0.074075        0.07020630952380952        0        
C3        C        0.3125        0.092592        0.07020630952380952        0        
C4        C        0.34375        0.037037        0.07020630952380952        0        
C1        C        0.3125        0.12963        0.07020630952380952        0        
C2        C        0.34375        0.185185        0.07020630952380952        0        
C3        C        0.3125        0.203703        0.07020630952380952        0        
C4        C        0.34375        0.148148        0.07020630952380952        0        
C1        C        0.3125        0.24074099999999998        0.07020630952380952        0        
C2        C        0.34375        0.296297        0.07020630952380952        0        
C3        C        0.3125        0.314815        0.07020630952380952        0        
C4        C        0.34375        0.259259        0.07020630952380952        0        
C1        C        0.3125        0.351852        0.07020630952380952        0        
C2        C        0.34375        0.407408        0.07020630952380952        0        
C3        C        0.3125        0.42592500000000005        0.07020630952380952        0        
C4        C        0.34375        0.37037        0.07020630952380952        0        
C1        C        0.3125        0.46296300000000007        0.07020630952380952        0        
C2        C        0.34375        0.518519        0.07020630952380952        0        
C3        C        0.3125        0.537037        0.07020630952380952        0        
C4        C        0.34375        0.481481        0.07020630952380952        0        
C1        C        0.3125        0.574075        0.07020630952380952        0        
C2        C        0.34375        0.62963        0.07020630952380952        0        
C3        C        0.3125        0.648148        0.07020630952380952        0        
C4        C        0.34375        0.592592        0.07020630952380952        0        
C_FG        C        0.375        0.018519        0.07020630952380952        0.2        
C2        C        0.40625        0.074075        0.07020630952380952        0        
C3        C        0.375        0.092592        0.07020630952380952        0        
C4        C        0.40625        0.037037        0.07020630952380952        0        
C_FG        C        0.375        0.12963        0.07020630952380952        0.2        
C2        C        0.40625        0.185185        0.07020630952380952        0        
C3        C        0.375        0.203703        0.07020630952380952        0        
C4        C        0.40625        0.148148        0.07020630952380952        0        
C_FG        C        0.375        0.24074099999999998        0.07020630952380952        0.2        
C2        C        0.40625        0.296297        0.07020630952380952        0        
C3        C        0.375        0.314815        0.07020630952380952        0        
C4        C        0.40625        0.259259        0.07020630952380952        0        
C_FG        C        0.375        0.351852        0.07020630952380952        0.2        
C2        C        0.40625        0.407408        0.07020630952380952        0        
C3        C        0.375        0.42592500000000005        0.07020630952380952        0        
C4        C        0.40625        0.37037        0.07020630952380952        0        
C_FG        C        0.375        0.46296300000000007        0.07020630952380952        0.2        
C2        C        0.40625        0.518519        0.07020630952380952        0        
C3        C        0.375        0.537037        0.07020630952380952        0        
C4        C        0.40625        0.481481        0.07020630952380952        0        
C_FG        C        0.375        0.574075        0.07020630952380952        0.2        
C2        C        0.40625        0.62963        0.07020630952380952        0        
C3        C        0.375        0.648148        0.07020630952380952        0        
C4        C        0.40625        0.592592        0.07020630952380952        0        
C1        C        0.4375        0.018519        0.07020630952380952        0        
C2        C        0.46875        0.074075        0.07020630952380952        0        
C3        C        0.4375        0.092592        0.07020630952380952        0        
C4        C        0.46875        0.037037        0.07020630952380952        0        
C1        C        0.4375        0.12963        0.07020630952380952        0        
C2        C        0.46875        0.185185        0.07020630952380952        0        
C3        C        0.4375        0.203703        0.07020630952380952        0        
C4        C        0.46875        0.148148        0.07020630952380952        0        
C1        C        0.4375        0.24074099999999998        0.07020630952380952        0        
C2        C        0.46875        0.296297        0.07020630952380952        0        
C3        C        0.4375        0.314815        0.07020630952380952        0        
C4        C        0.46875        0.259259        0.07020630952380952        0        
C1        C        0.4375        0.351852        0.07020630952380952        0        
C2        C        0.46875        0.407408        0.07020630952380952        0        
C3        C        0.4375        0.42592500000000005        0.07020630952380952        0        
C4        C        0.46875        0.37037        0.07020630952380952        0        
C1        C        0.4375        0.46296300000000007        0.07020630952380952        0        
C2        C        0.46875        0.518519        0.07020630952380952        0        
C3        C        0.4375        0.537037        0.07020630952380952        0        
C4        C        0.46875        0.481481        0.07020630952380952        0        
C1        C        0.4375        0.574075        0.07020630952380952        0        
C2        C        0.46875        0.62963        0.07020630952380952        0        
C3        C        0.4375        0.648148        0.07020630952380952        0        
C4        C        0.46875        0.592592        0.07020630952380952        0        
C_FG        C        0.5        0.018519        0.07020630952380952        0.2        
C2        C        0.53125        0.074075        0.07020630952380952        0        
C3        C        0.5        0.092592        0.07020630952380952        0        
C4        C        0.53125        0.037037        0.07020630952380952        0        
C_FG        C        0.5        0.12963        0.07020630952380952        0.2        
C2        C        0.53125        0.185185        0.07020630952380952        0        
C3        C        0.5        0.203703        0.07020630952380952        0        
C4        C        0.53125        0.148148        0.07020630952380952        0        
C_FG        C        0.5        0.24074099999999998        0.07020630952380952        0.2        
C2        C        0.53125        0.296297        0.07020630952380952        0        
C3        C        0.5        0.314815        0.07020630952380952        0        
C4        C        0.53125        0.259259        0.07020630952380952        0        
C_FG        C        0.5        0.351852        0.07020630952380952        0.2        
C2        C        0.53125        0.407408        0.07020630952380952        0        
C3        C        0.5        0.42592500000000005        0.07020630952380952        0        
C4        C        0.53125        0.37037        0.07020630952380952        0        
C_FG        C        0.5        0.46296300000000007        0.07020630952380952        0.2        
C2        C        0.53125        0.518519        0.07020630952380952        0        
C3        C        0.5        0.537037        0.07020630952380952        0        
C4        C        0.53125        0.481481        0.07020630952380952        0        
C_FG        C        0.5        0.574075        0.07020630952380952        0.2        
C2        C        0.53125        0.62963        0.07020630952380952        0        
C3        C        0.5        0.648148        0.07020630952380952        0        
C4        C        0.53125        0.592592        0.07020630952380952        0        
C1        C        0.5625        0.018519        0.07020630952380952        0        
C2        C        0.59375        0.074075        0.07020630952380952        0        
C3        C        0.5625        0.092592        0.07020630952380952        0        
C4        C        0.59375        0.037037        0.07020630952380952        0        
C1        C        0.5625        0.12963        0.07020630952380952        0        
C2        C        0.59375        0.185185        0.07020630952380952        0        
C3        C        0.5625        0.203703        0.07020630952380952        0        
C4        C        0.59375        0.148148        0.07020630952380952        0        
C1        C        0.5625        0.24074099999999998        0.07020630952380952        0        
C2        C        0.59375        0.296297        0.07020630952380952        0        
C3        C        0.5625        0.314815        0.07020630952380952        0        
C4        C        0.59375        0.259259        0.07020630952380952        0        
C1        C        0.5625        0.351852        0.07020630952380952        0        
C2        C        0.59375        0.407408        0.07020630952380952        0        
C3        C        0.5625        0.42592500000000005        0.07020630952380952        0        
C4        C        0.59375        0.37037        0.07020630952380952        0        
C1        C        0.5625        0.46296300000000007        0.07020630952380952        0        
C2        C        0.59375        0.518519        0.07020630952380952        0        
C3        C        0.5625        0.537037        0.07020630952380952        0        
C4        C        0.59375        0.481481        0.07020630952380952        0        
C1        C        0.5625        0.574075        0.07020630952380952        0        
C2        C        0.59375        0.62963        0.07020630952380952        0        
C3        C        0.5625        0.648148        0.07020630952380952        0        
C4        C        0.59375        0.592592        0.07020630952380952        0        
C_FG        C        0.625        0.018519        0.07020630952380952        0.2        
C2        C        0.65625        0.074075        0.07020630952380952        0        
C3        C        0.625        0.092592        0.07020630952380952        0        
C4        C        0.65625        0.037037        0.07020630952380952        0        
C_FG        C        0.625        0.12963        0.07020630952380952        0.2        
C2        C        0.65625        0.185185        0.07020630952380952        0        
C3        C        0.625        0.203703        0.07020630952380952        0        
C4        C        0.65625        0.148148        0.07020630952380952        0        
C_FG        C        0.625        0.24074099999999998        0.07020630952380952        0.2        
C2        C        0.65625        0.296297        0.07020630952380952        0        
C3        C        0.625        0.314815        0.07020630952380952        0        
C4        C        0.65625        0.259259        0.07020630952380952        0        
C_FG        C        0.625        0.351852        0.07020630952380952        0.2        
C2        C        0.65625        0.407408        0.07020630952380952        0        
C3        C        0.625        0.42592500000000005        0.07020630952380952        0        
C4        C        0.65625        0.37037        0.07020630952380952        0        
C_FG        C        0.625        0.46296300000000007        0.07020630952380952        0.2        
C2        C        0.65625        0.518519        0.07020630952380952        0        
C3        C        0.625        0.537037        0.07020630952380952        0        
C4        C        0.65625        0.481481        0.07020630952380952        0        
C_FG        C        0.625        0.574075        0.07020630952380952        0.2        
C2        C        0.65625        0.62963        0.07020630952380952        0        
C3        C        0.625        0.648148        0.07020630952380952        0        
C4        C        0.65625        0.592592        0.07020630952380952        0        
C1        C        0.6875        0.018519        0.07020630952380952        0        
C2        C        0.71875        0.074075        0.07020630952380952        0        
C3        C        0.6875        0.092592        0.07020630952380952        0        
C4        C        0.71875        0.037037        0.07020630952380952        0        
C1        C        0.6875        0.12963        0.07020630952380952        0        
C2        C        0.71875        0.185185        0.07020630952380952        0        
C3        C        0.6875        0.203703        0.07020630952380952        0        
C4        C        0.71875        0.148148        0.07020630952380952        0        
C1        C        0.6875        0.24074099999999998        0.07020630952380952        0        
C2        C        0.71875        0.296297        0.07020630952380952        0        
C3        C        0.6875        0.314815        0.07020630952380952        0        
C4        C        0.71875        0.259259        0.07020630952380952        0        
C1        C        0.6875        0.351852        0.07020630952380952        0        
C2        C        0.71875        0.407408        0.07020630952380952        0        
C3        C        0.6875        0.42592500000000005        0.07020630952380952        0        
C4        C        0.71875        0.37037        0.07020630952380952        0        
C1        C        0.6875        0.46296300000000007        0.07020630952380952        0        
C2        C        0.71875        0.518519        0.07020630952380952        0        
C3        C        0.6875        0.537037        0.07020630952380952        0        
C4        C        0.71875        0.481481        0.07020630952380952        0        
C1        C        0.6875        0.574075        0.07020630952380952        0        
C2        C        0.71875        0.62963        0.07020630952380952        0        
C3        C        0.6875        0.648148        0.07020630952380952        0        
C4        C        0.71875        0.592592        0.07020630952380952        0        
C_FG        C        0.75        0.018519        0.07020630952380952        0.2        
C2        C        0.78125        0.074075        0.07020630952380952        0        
C3        C        0.75        0.092592        0.07020630952380952        0        
C4        C        0.78125        0.037037        0.07020630952380952        0        
C_FG        C        0.75        0.12963        0.07020630952380952        0.2        
C2        C        0.78125        0.185185        0.07020630952380952        0        
C3        C        0.75        0.203703        0.07020630952380952        0        
C4        C        0.78125        0.148148        0.07020630952380952        0        
C_FG        C        0.75        0.24074099999999998        0.07020630952380952        0.2        
C2        C        0.78125        0.296297        0.07020630952380952        0        
C3        C        0.75        0.314815        0.07020630952380952        0        
C4        C        0.78125        0.259259        0.07020630952380952        0        
C_FG        C        0.75        0.351852        0.07020630952380952        0.2        
C2        C        0.78125        0.407408        0.07020630952380952        0        
C3        C        0.75        0.42592500000000005        0.07020630952380952        0        
C4        C        0.78125        0.37037        0.07020630952380952        0        
C_FG        C        0.75        0.46296300000000007        0.07020630952380952        0.2        
C2        C        0.78125        0.518519        0.07020630952380952        0        
C3        C        0.75        0.537037        0.07020630952380952        0        
C4        C        0.78125        0.481481        0.07020630952380952        0        
C_FG        C        0.75        0.574075        0.07020630952380952        0.2        
C2        C        0.78125        0.62963        0.07020630952380952        0        
C3        C        0.75        0.648148        0.07020630952380952        0        
C4        C        0.78125        0.592592        0.07020630952380952        0        
C1        C        0.8125        0.018519        0.07020630952380952        0        
C2        C        0.84375        0.074075        0.07020630952380952        0        
C3        C        0.8125        0.092592        0.07020630952380952        0        
C4        C        0.84375        0.037037        0.07020630952380952        0        
C1        C        0.8125        0.12963        0.07020630952380952        0        
C2        C        0.84375        0.185185        0.07020630952380952        0        
C3        C        0.8125        0.203703        0.07020630952380952        0        
C4        C        0.84375        0.148148        0.07020630952380952        0        
C1        C        0.8125        0.24074099999999998        0.07020630952380952        0        
C2        C        0.84375        0.296297        0.07020630952380952        0        
C3        C        0.8125        0.314815        0.07020630952380952        0        
C4        C        0.84375        0.259259        0.07020630952380952        0        
C1        C        0.8125        0.351852        0.07020630952380952        0        
C2        C        0.84375        0.407408        0.07020630952380952        0        
C3        C        0.8125        0.42592500000000005        0.07020630952380952        0        
C4        C        0.84375        0.37037        0.07020630952380952        0        
C1        C        0.8125        0.46296300000000007        0.07020630952380952        0        
C2        C        0.84375        0.518519        0.07020630952380952        0        
C3        C        0.8125        0.537037        0.07020630952380952        0        
C4        C        0.84375        0.481481        0.07020630952380952        0        
C1        C        0.8125        0.574075        0.07020630952380952        0        
C2        C        0.84375        0.62963        0.07020630952380952        0        
C3        C        0.8125        0.648148        0.07020630952380952        0        
C4        C        0.84375        0.592592        0.07020630952380952        0        
C_FG        C        0.875        0.018519        0.07020630952380952        0.2        
C2        C        0.9062500000000001        0.074075        0.07020630952380952        0        
C3        C        0.875        0.092592        0.07020630952380952        0        
C4        C        0.9062500000000001        0.037037        0.07020630952380952        0        
C_FG        C        0.875        0.12963        0.07020630952380952        0.2        
C2        C        0.9062500000000001        0.185185        0.07020630952380952        0        
C3        C        0.875        0.203703        0.07020630952380952        0        
C4        C        0.9062500000000001        0.148148        0.07020630952380952        0        
C_FG        C        0.875        0.24074099999999998        0.07020630952380952        0.2        
C2        C        0.9062500000000001        0.296297        0.07020630952380952        0        
C3        C        0.875        0.314815        0.07020630952380952        0        
C4        C        0.9062500000000001        0.259259        0.07020630952380952        0        
C_FG        C        0.875        0.351852        0.07020630952380952        0.2        
C2        C        0.9062500000000001        0.407408        0.07020630952380952        0        
C3        C        0.875        0.42592500000000005        0.07020630952380952        0        
C4        C        0.9062500000000001        0.37037        0.07020630952380952        0        
C_FG        C        0.875        0.46296300000000007        0.07020630952380952        0.2        
C2        C        0.9062500000000001        0.518519        0.07020630952380952        0        
C3        C        0.875        0.537037        0.07020630952380952        0        
C4        C        0.9062500000000001        0.481481        0.07020630952380952        0        
C_FG        C        0.875        0.574075        0.07020630952380952        0.2        
C2        C        0.9062500000000001        0.62963        0.07020630952380952        0        
C3        C        0.875        0.648148        0.07020630952380952        0        
C4        C        0.9062500000000001        0.592592        0.07020630952380952        0        
C1        C        0.9375        0.018519        0.07020630952380952        0        
C2        C        0.9687500000000001        0.074075        0.07020630952380952        0        
C3        C        0.9375        0.092592        0.07020630952380952        0        
C4        C        0.9687500000000001        0.037037        0.07020630952380952        0        
C1        C        0.9375        0.12963        0.07020630952380952        0        
C2        C        0.9687500000000001        0.185185        0.07020630952380952        0        
C3        C        0.9375        0.203703        0.07020630952380952        0        
C4        C        0.9687500000000001        0.148148        0.07020630952380952        0        
C1        C        0.9375        0.24074099999999998        0.07020630952380952        0        
C2        C        0.9687500000000001        0.296297        0.07020630952380952        0        
C3        C        0.9375        0.314815        0.07020630952380952        0        
C4        C        0.9687500000000001        0.259259        0.07020630952380952        0        
C1        C        0.9375        0.351852        0.07020630952380952        0        
C2        C        0.9687500000000001        0.407408        0.07020630952380952        0        
C3        C        0.9375        0.42592500000000005        0.07020630952380952        0        
C4        C        0.9687500000000001        0.37037        0.07020630952380952        0        
C1        C        0.9375        0.46296300000000007        0.07020630952380952        0        
C2        C        0.9687500000000001        0.518519        0.07020630952380952        0        
C3        C        0.9375        0.537037        0.07020630952380952        0        
C4        C        0.9687500000000001        0.481481        0.07020630952380952        0        
C1        C        0.9375        0.574075        0.07020630952380952        0        
C2        C        0.9687500000000001        0.62963        0.07020630952380952        0        
C3        C        0.9375        0.648148        0.07020630952380952        0        
C4        C        0.9687500000000001        0.592592        0.07020630952380952        0        
C_FG        C        0.0        0.685186        0.07020630952380952        0.2        
C1        C        0.0625        0.685186        0.07020630952380952        0        
C_FG        C        0.125        0.685186        0.07020630952380952        0.2        
C1        C        0.1875        0.685186        0.07020630952380952        0        
C_FG        C        0.25        0.685186        0.07020630952380952        0.2        
C1        C        0.3125        0.685186        0.07020630952380952        0        
C_FG        C        0.375        0.685186        0.07020630952380952        0.2        
C1        C        0.4375        0.685186        0.07020630952380952        0        
C_FG        C        0.5        0.685186        0.07020630952380952        0.2        
C1        C        0.5625        0.685186        0.07020630952380952        0        
C_FG        C        0.625        0.685186        0.07020630952380952        0.2        
C1        C        0.6875        0.685186        0.07020630952380952        0        
C_FG        C        0.75        0.685186        0.07020630952380952        0.2        
C1        C        0.8125        0.685186        0.07020630952380952        0        
C_FG        C        0.875        0.685186        0.07020630952380952        0.2        
C1        C        0.9375        0.685186        0.07020630952380952        0        
C2        C        0.03125        0.740741        0.07020630952380952        0        
C2        C        0.09375        0.740741        0.07020630952380952        0        
C2        C        0.15625        0.740741        0.07020630952380952        0        
C2        C        0.21875        0.740741        0.07020630952380952        0        
C2        C        0.28125        0.740741        0.07020630952380952        0        
C2        C        0.34375        0.740741        0.07020630952380952        0        
C2        C        0.40625        0.740741        0.07020630952380952        0        
C2        C        0.46875        0.740741        0.07020630952380952        0        
C2        C        0.53125        0.740741        0.07020630952380952        0        
C2        C        0.59375        0.740741        0.07020630952380952        0        
C2        C        0.65625        0.740741        0.07020630952380952        0        
C2        C        0.71875        0.740741        0.07020630952380952        0        
C2        C        0.78125        0.740741        0.07020630952380952        0        
C2        C        0.84375        0.740741        0.07020630952380952        0        
C2        C        0.9062500000000001        0.740741        0.07020630952380952        0        
C2        C        0.9687500000000001        0.740741        0.07020630952380952        0        
C3        C        0.0        0.759259        0.07020630952380952        0        
C3        C        0.0625        0.759259        0.07020630952380952        0        
C3        C        0.125        0.759259        0.07020630952380952        0        
C3        C        0.1875        0.759259        0.07020630952380952        0        
C3        C        0.25        0.759259        0.07020630952380952        0        
C3        C        0.3125        0.759259        0.07020630952380952        0        
C3        C        0.375        0.759259        0.07020630952380952        0        
C3        C        0.4375        0.759259        0.07020630952380952        0        
C3        C        0.5        0.759259        0.07020630952380952        0        
C3        C        0.5625        0.759259        0.07020630952380952        0        
C3        C        0.625        0.759259        0.07020630952380952        0        
C3        C        0.6875        0.759259        0.07020630952380952        0        
C3        C        0.75        0.759259        0.07020630952380952        0        
C3        C        0.8125        0.759259        0.07020630952380952        0        
C3        C        0.875        0.759259        0.07020630952380952        0        
C3        C        0.9375        0.759259        0.07020630952380952        0        
C4        C        0.03125        0.703703        0.07020630952380952        0        
C4        C        0.09375        0.703703        0.07020630952380952        0        
C4        C        0.15625        0.703703        0.07020630952380952        0        
C4        C        0.21875        0.703703        0.07020630952380952        0        
C4        C        0.28125        0.703703        0.07020630952380952        0        
C4        C        0.34375        0.703703        0.07020630952380952        0        
C4        C        0.40625        0.703703        0.07020630952380952        0        
C4        C        0.46875        0.703703        0.07020630952380952        0        
C4        C        0.53125        0.703703        0.07020630952380952        0        
C4        C        0.59375        0.703703        0.07020630952380952        0        
C4        C        0.65625        0.703703        0.07020630952380952        0        
C4        C        0.71875        0.703703        0.07020630952380952        0        
C4        C        0.78125        0.703703        0.07020630952380952        0        
C4        C        0.84375        0.703703        0.07020630952380952        0        
C4        C        0.9062500000000001        0.703703        0.07020630952380952        0        
C4        C        0.9687500000000001        0.703703        0.07020630952380952        0        
C_FG        C        0.0        0.796297        0.07020630952380952        0.2        
C1        C        0.0625        0.796297        0.07020630952380952        0        
C_FG        C        0.125        0.796297        0.07020630952380952        0.2        
C1        C        0.1875        0.796297        0.07020630952380952        0        
C_FG        C        0.25        0.796297        0.07020630952380952        0.2        
C1        C        0.3125        0.796297        0.07020630952380952        0        
C_FG        C        0.375        0.796297        0.07020630952380952        0.2        
C1        C        0.4375        0.796297        0.07020630952380952        0        
C_FG        C        0.5        0.796297        0.07020630952380952        0.2        
C1        C        0.5625        0.796297        0.07020630952380952        0        
C_FG        C        0.625        0.796297        0.07020630952380952        0.2        
C1        C        0.6875        0.796297        0.07020630952380952        0        
C_FG        C        0.75        0.796297        0.07020630952380952        0.2        
C1        C        0.8125        0.796297        0.07020630952380952        0        
C_FG        C        0.875        0.796297        0.07020630952380952        0.2        
C1        C        0.9375        0.796297        0.07020630952380952        0        
C2        C        0.03125        0.851852        0.07020630952380952        0        
C2        C        0.09375        0.851852        0.07020630952380952        0        
C2        C        0.15625        0.851852        0.07020630952380952        0        
C2        C        0.21875        0.851852        0.07020630952380952        0        
C2        C        0.28125        0.851852        0.07020630952380952        0        
C2        C        0.34375        0.851852        0.07020630952380952        0        
C2        C        0.40625        0.851852        0.07020630952380952        0        
C2        C        0.46875        0.851852        0.07020630952380952        0        
C2        C        0.53125        0.851852        0.07020630952380952        0        
C2        C        0.59375        0.851852        0.07020630952380952        0        
C2        C        0.65625        0.851852        0.07020630952380952        0        
C2        C        0.71875        0.851852        0.07020630952380952        0        
C2        C        0.78125        0.851852        0.07020630952380952        0        
C2        C        0.84375        0.851852        0.07020630952380952        0        
C2        C        0.9062500000000001        0.851852        0.07020630952380952        0        
C2        C        0.9687500000000001        0.851852        0.07020630952380952        0        
C3        C        0.0        0.87037        0.07020630952380952        0        
C3        C        0.0625        0.87037        0.07020630952380952        0        
C3        C        0.125        0.87037        0.07020630952380952        0        
C3        C        0.1875        0.87037        0.07020630952380952        0        
C3        C        0.25        0.87037        0.07020630952380952        0        
C3        C        0.3125        0.87037        0.07020630952380952        0        
C3        C        0.375        0.87037        0.07020630952380952        0        
C3        C        0.4375        0.87037        0.07020630952380952        0        
C3        C        0.5        0.87037        0.07020630952380952        0        
C3        C        0.5625        0.87037        0.07020630952380952        0        
C3        C        0.625        0.87037        0.07020630952380952        0        
C3        C        0.6875        0.87037        0.07020630952380952        0        
C3        C        0.75        0.87037        0.07020630952380952        0        
C3        C        0.8125        0.87037        0.07020630952380952        0        
C3        C        0.875        0.87037        0.07020630952380952        0        
C3        C        0.9375        0.87037        0.07020630952380952        0        
C4        C        0.03125        0.814814        0.07020630952380952        0        
C4        C        0.09375        0.814814        0.07020630952380952        0        
C4        C        0.15625        0.814814        0.07020630952380952        0        
C4        C        0.21875        0.814814        0.07020630952380952        0        
C4        C        0.28125        0.814814        0.07020630952380952        0        
C4        C        0.34375        0.814814        0.07020630952380952        0        
C4        C        0.40625        0.814814        0.07020630952380952        0        
C4        C        0.46875        0.814814        0.07020630952380952        0        
C4        C        0.53125        0.814814        0.07020630952380952        0        
C4        C        0.59375        0.814814        0.07020630952380952        0        
C4        C        0.65625        0.814814        0.07020630952380952        0        
C4        C        0.71875        0.814814        0.07020630952380952        0        
C4        C        0.78125        0.814814        0.07020630952380952        0        
C4        C        0.84375        0.814814        0.07020630952380952        0        
C4        C        0.9062500000000001        0.814814        0.07020630952380952        0        
C4        C        0.9687500000000001        0.814814        0.07020630952380952        0        
C_FG        C        0.0        0.907408        0.07020630952380952        0.2        
C1        C        0.0625        0.907408        0.07020630952380952        0        
C_FG        C        0.125        0.907408        0.07020630952380952        0.2        
C1        C        0.1875        0.907408        0.07020630952380952        0        
C_FG        C        0.25        0.907408        0.07020630952380952        0.2        
C1        C        0.3125        0.907408        0.07020630952380952        0        
C_FG        C        0.375        0.907408        0.07020630952380952        0.2        
C1        C        0.4375        0.907408        0.07020630952380952        0        
C_FG        C        0.5        0.907408        0.07020630952380952        0.2        
C1        C        0.5625        0.907408        0.07020630952380952        0        
C_FG        C        0.625        0.907408        0.07020630952380952        0.2        
C1        C        0.6875        0.907408        0.07020630952380952        0        
C_FG        C        0.75        0.907408        0.07020630952380952        0.2        
C1        C        0.8125        0.907408        0.07020630952380952        0        
C_FG        C        0.875        0.907408        0.07020630952380952        0.2        
C1        C        0.9375        0.907408        0.07020630952380952        0        
C2        C        0.03125        0.962963        0.07020630952380952        0        
C2        C        0.09375        0.962963        0.07020630952380952        0        
C2        C        0.15625        0.962963        0.07020630952380952        0        
C2        C        0.21875        0.962963        0.07020630952380952        0        
C2        C        0.28125        0.962963        0.07020630952380952        0        
C2        C        0.34375        0.962963        0.07020630952380952        0        
C2        C        0.40625        0.962963        0.07020630952380952        0        
C2        C        0.46875        0.962963        0.07020630952380952        0        
C2        C        0.53125        0.962963        0.07020630952380952        0        
C2        C        0.59375        0.962963        0.07020630952380952        0        
C2        C        0.65625        0.962963        0.07020630952380952        0        
C2        C        0.71875        0.962963        0.07020630952380952        0        
C2        C        0.78125        0.962963        0.07020630952380952        0        
C2        C        0.84375        0.962963        0.07020630952380952        0        
C2        C        0.9062500000000001        0.962963        0.07020630952380952        0        
C2        C        0.9687500000000001        0.962963        0.07020630952380952        0        
C3        C        0.0        0.9814809999999999        0.07020630952380952        0        
C3        C        0.0625        0.9814809999999999        0.07020630952380952        0        
C3        C        0.125        0.9814809999999999        0.07020630952380952        0        
C3        C        0.1875        0.9814809999999999        0.07020630952380952        0        
C3        C        0.25        0.9814809999999999        0.07020630952380952        0        
C3        C        0.3125        0.9814809999999999        0.07020630952380952        0        
C3        C        0.375        0.9814809999999999        0.07020630952380952        0        
C3        C        0.4375        0.9814809999999999        0.07020630952380952        0        
C3        C        0.5        0.9814809999999999        0.07020630952380952        0        
C3        C        0.5625        0.9814809999999999        0.07020630952380952        0        
C3        C        0.625        0.9814809999999999        0.07020630952380952        0        
C3        C        0.6875        0.9814809999999999        0.07020630952380952        0        
C3        C        0.75        0.9814809999999999        0.07020630952380952        0        
C3        C        0.8125        0.9814809999999999        0.07020630952380952        0        
C3        C        0.875        0.9814809999999999        0.07020630952380952        0        
C3        C        0.9375        0.9814809999999999        0.07020630952380952        0        
C4        C        0.03125        0.925925        0.07020630952380952        0        
C4        C        0.09375        0.925925        0.07020630952380952        0        
C4        C        0.15625        0.925925        0.07020630952380952        0        
C4        C        0.21875        0.925925        0.07020630952380952        0        
C4        C        0.28125        0.925925        0.07020630952380952        0        
C4        C        0.34375        0.925925        0.07020630952380952        0        
C4        C        0.40625        0.925925        0.07020630952380952        0        
C4        C        0.46875        0.925925        0.07020630952380952        0        
C4        C        0.53125        0.925925        0.07020630952380952        0        
C4        C        0.59375        0.925925        0.07020630952380952        0        
C4        C        0.65625        0.925925        0.07020630952380952        0        
C4        C        0.71875        0.925925        0.07020630952380952        0        
C4        C        0.78125        0.925925        0.07020630952380952        0        
C4        C        0.84375        0.925925        0.07020630952380952        0        
C4        C        0.9062500000000001        0.925925        0.07020630952380952        0        
C4        C        0.9687500000000001        0.925925        0.07020630952380952        0        
C1        C        0.0        0.018519        0.2031433095238095        0        
C2        C        0.03125        0.074075        0.2031433095238095        0        
C3        C        0.0        0.092592        0.2031433095238095        0        
C4        C        0.03125        0.037037        0.2031433095238095        0        
C1        C        0.0        0.12963        0.2031433095238095        0        
C2        C        0.03125        0.185185        0.2031433095238095        0        
C3        C        0.0        0.203703        0.2031433095238095        0        
C4        C        0.03125        0.148148        0.2031433095238095        0        
C1        C        0.0        0.24074099999999998        0.2031433095238095        0        
C2        C        0.03125        0.296297        0.2031433095238095        0        
C3        C        0.0        0.314815        0.2031433095238095        0        
C4        C        0.03125        0.259259        0.2031433095238095        0        
C1        C        0.0        0.351852        0.2031433095238095        0        
C2        C        0.03125        0.407408        0.2031433095238095        0        
C3        C        0.0        0.42592500000000005        0.2031433095238095        0        
C4        C        0.03125        0.37037        0.2031433095238095        0        
C1        C        0.0        0.46296300000000007        0.2031433095238095        0        
C2        C        0.03125        0.518519        0.2031433095238095        0        
C3        C        0.0        0.537037        0.2031433095238095        0        
C4        C        0.03125        0.481481        0.2031433095238095        0        
C1        C        0.0        0.574075        0.2031433095238095        0        
C2        C        0.03125        0.62963        0.2031433095238095        0        
C3        C        0.0        0.648148        0.2031433095238095        0        
C4        C        0.03125        0.592592        0.2031433095238095        0        
C1        C        0.0625        0.018519        0.2031433095238095        0        
C2        C        0.09375        0.074075        0.2031433095238095        0        
C3        C        0.0625        0.092592        0.2031433095238095        0        
C4        C        0.09375        0.037037        0.2031433095238095        0        
C1        C        0.0625        0.12963        0.2031433095238095        0        
C2        C        0.09375        0.185185        0.2031433095238095        0        
C3        C        0.0625        0.203703        0.2031433095238095        0        
C4        C        0.09375        0.148148        0.2031433095238095        0        
C1        C        0.0625        0.24074099999999998        0.2031433095238095        0        
C2        C        0.09375        0.296297        0.2031433095238095        0        
C3        C        0.0625        0.314815        0.2031433095238095        0        
C4        C        0.09375        0.259259        0.2031433095238095        0        
C1        C        0.0625        0.351852        0.2031433095238095        0        
C2        C        0.09375        0.407408        0.2031433095238095        0        
C3        C        0.0625        0.42592500000000005        0.2031433095238095        0        
C4        C        0.09375        0.37037        0.2031433095238095        0        
C1        C        0.0625        0.46296300000000007        0.2031433095238095        0        
C2        C        0.09375        0.518519        0.2031433095238095        0        
C3        C        0.0625        0.537037        0.2031433095238095        0        
C4        C        0.09375        0.481481        0.2031433095238095        0        
C1        C        0.0625        0.574075        0.2031433095238095        0        
C2        C        0.09375        0.62963        0.2031433095238095        0        
C3        C        0.0625        0.648148        0.2031433095238095        0        
C4        C        0.09375        0.592592        0.2031433095238095        0        
C1        C        0.125        0.018519        0.2031433095238095        0        
C2        C        0.15625        0.074075        0.2031433095238095        0        
C3        C        0.125        0.092592        0.2031433095238095        0        
C4        C        0.15625        0.037037        0.2031433095238095        0        
C1        C        0.125        0.12963        0.2031433095238095        0        
C2        C        0.15625        0.185185        0.2031433095238095        0        
C3        C        0.125        0.203703        0.2031433095238095        0        
C4        C        0.15625        0.148148        0.2031433095238095        0        
C1        C        0.125        0.24074099999999998        0.2031433095238095        0        
C2        C        0.15625        0.296297        0.2031433095238095        0        
C3        C        0.125        0.314815        0.2031433095238095        0        
C4        C        0.15625        0.259259        0.2031433095238095        0        
C1        C        0.125        0.351852        0.2031433095238095        0        
C2        C        0.15625        0.407408        0.2031433095238095        0        
C3        C        0.125        0.42592500000000005        0.2031433095238095        0        
C4        C        0.15625        0.37037        0.2031433095238095        0        
C1        C        0.125        0.46296300000000007        0.2031433095238095        0        
C2        C        0.15625        0.518519        0.2031433095238095        0        
C3        C        0.125        0.537037        0.2031433095238095        0        
C4        C        0.15625        0.481481        0.2031433095238095        0        
C1        C        0.125        0.574075        0.2031433095238095        0        
C2        C        0.15625        0.62963        0.2031433095238095        0        
C3        C        0.125        0.648148        0.2031433095238095        0        
C4        C        0.15625        0.592592        0.2031433095238095        0        
C1        C        0.1875        0.018519        0.2031433095238095        0        
C2        C        0.21875        0.074075        0.2031433095238095        0        
C3        C        0.1875        0.092592        0.2031433095238095        0        
C4        C        0.21875        0.037037        0.2031433095238095        0        
C1        C        0.1875        0.12963        0.2031433095238095        0        
C2        C        0.21875        0.185185        0.2031433095238095        0        
C3        C        0.1875        0.203703        0.2031433095238095        0        
C4        C        0.21875        0.148148        0.2031433095238095        0        
C1        C        0.1875        0.24074099999999998        0.2031433095238095        0        
C2        C        0.21875        0.296297        0.2031433095238095        0        
C3        C        0.1875        0.314815        0.2031433095238095        0        
C4        C        0.21875        0.259259        0.2031433095238095        0        
C1        C        0.1875        0.351852        0.2031433095238095        0        
C2        C        0.21875        0.407408        0.2031433095238095        0        
C3        C        0.1875        0.42592500000000005        0.2031433095238095        0        
C4        C        0.21875        0.37037        0.2031433095238095        0        
C1        C        0.1875        0.46296300000000007        0.2031433095238095        0        
C2        C        0.21875        0.518519        0.2031433095238095        0        
C3        C        0.1875        0.537037        0.2031433095238095        0        
C4        C        0.21875        0.481481        0.2031433095238095        0        
C1        C        0.1875        0.574075        0.2031433095238095        0        
C2        C        0.21875        0.62963        0.2031433095238095        0        
C3        C        0.1875        0.648148        0.2031433095238095        0        
C4        C        0.21875        0.592592        0.2031433095238095        0        
C1        C        0.25        0.018519        0.2031433095238095        0        
C2        C        0.28125        0.074075        0.2031433095238095        0        
C3        C        0.25        0.092592        0.2031433095238095        0        
C4        C        0.28125        0.037037        0.2031433095238095        0        
C1        C        0.25        0.12963        0.2031433095238095        0        
C2        C        0.28125        0.185185        0.2031433095238095        0        
C3        C        0.25        0.203703        0.2031433095238095        0        
C4        C        0.28125        0.148148        0.2031433095238095        0        
C1        C        0.25        0.24074099999999998        0.2031433095238095        0        
C2        C        0.28125        0.296297        0.2031433095238095        0        
C3        C        0.25        0.314815        0.2031433095238095        0        
C4        C        0.28125        0.259259        0.2031433095238095        0        
C1        C        0.25        0.351852        0.2031433095238095        0        
C2        C        0.28125        0.407408        0.2031433095238095        0        
C3        C        0.25        0.42592500000000005        0.2031433095238095        0        
C4        C        0.28125        0.37037        0.2031433095238095        0        
C1        C        0.25        0.46296300000000007        0.2031433095238095        0        
C2        C        0.28125        0.518519        0.2031433095238095        0        
C3        C        0.25        0.537037        0.2031433095238095        0        
C4        C        0.28125        0.481481        0.2031433095238095        0        
C1        C        0.25        0.574075        0.2031433095238095        0        
C2        C        0.28125        0.62963        0.2031433095238095        0        
C3        C        0.25        0.648148        0.2031433095238095        0        
C4        C        0.28125        0.592592        0.2031433095238095        0        
C1        C        0.3125        0.018519        0.2031433095238095        0        
C2        C        0.34375        0.074075        0.2031433095238095        0        
C3        C        0.3125        0.092592        0.2031433095238095        0        
C4        C        0.34375        0.037037        0.2031433095238095        0        
C1        C        0.3125        0.12963        0.2031433095238095        0        
C2        C        0.34375        0.185185        0.2031433095238095        0        
C3        C        0.3125        0.203703        0.2031433095238095        0        
C4        C        0.34375        0.148148        0.2031433095238095        0        
C1        C        0.3125        0.24074099999999998        0.2031433095238095        0        
C2        C        0.34375        0.296297        0.2031433095238095        0        
C3        C        0.3125        0.314815        0.2031433095238095        0        
C4        C        0.34375        0.259259        0.2031433095238095        0        
C1        C        0.3125        0.351852        0.2031433095238095        0        
C2        C        0.34375        0.407408        0.2031433095238095        0        
C3        C        0.3125        0.42592500000000005        0.2031433095238095        0        
C4        C        0.34375        0.37037        0.2031433095238095        0        
C1        C        0.3125        0.46296300000000007        0.2031433095238095        0        
C2        C        0.34375        0.518519        0.2031433095238095        0        
C3        C        0.3125        0.537037        0.2031433095238095        0        
C4        C        0.34375        0.481481        0.2031433095238095        0        
C1        C        0.3125        0.574075        0.2031433095238095        0        
C2        C        0.34375        0.62963        0.2031433095238095        0        
C3        C        0.3125        0.648148        0.2031433095238095        0        
C4        C        0.34375        0.592592        0.2031433095238095        0        
C1        C        0.375        0.018519        0.2031433095238095        0        
C2        C        0.40625        0.074075        0.2031433095238095        0        
C3        C        0.375        0.092592        0.2031433095238095        0        
C4        C        0.40625        0.037037        0.2031433095238095        0        
C1        C        0.375        0.12963        0.2031433095238095        0        
C2        C        0.40625        0.185185        0.2031433095238095        0        
C3        C        0.375        0.203703        0.2031433095238095        0        
C4        C        0.40625        0.148148        0.2031433095238095        0        
C1        C        0.375        0.24074099999999998        0.2031433095238095        0        
C2        C        0.40625        0.296297        0.2031433095238095        0        
C3        C        0.375        0.314815        0.2031433095238095        0        
C4        C        0.40625        0.259259        0.2031433095238095        0        
C1        C        0.375        0.351852        0.2031433095238095        0        
C2        C        0.40625        0.407408        0.2031433095238095        0        
C3        C        0.375        0.42592500000000005        0.2031433095238095        0        
C4        C        0.40625        0.37037        0.2031433095238095        0        
C1        C        0.375        0.46296300000000007        0.2031433095238095        0        
C2        C        0.40625        0.518519        0.2031433095238095        0        
C3        C        0.375        0.537037        0.2031433095238095        0        
C4        C        0.40625        0.481481        0.2031433095238095        0        
C1        C        0.375        0.574075        0.2031433095238095        0        
C2        C        0.40625        0.62963        0.2031433095238095        0        
C3        C        0.375        0.648148        0.2031433095238095        0        
C4        C        0.40625        0.592592        0.2031433095238095        0        
C1        C        0.4375        0.018519        0.2031433095238095        0        
C2        C        0.46875        0.074075        0.2031433095238095        0        
C3        C        0.4375        0.092592        0.2031433095238095        0        
C4        C        0.46875        0.037037        0.2031433095238095        0        
C1        C        0.4375        0.12963        0.2031433095238095        0        
C2        C        0.46875        0.185185        0.2031433095238095        0        
C3        C        0.4375        0.203703        0.2031433095238095        0        
C4        C        0.46875        0.148148        0.2031433095238095        0        
C1        C        0.4375        0.24074099999999998        0.2031433095238095        0        
C2        C        0.46875        0.296297        0.2031433095238095        0        
C3        C        0.4375        0.314815        0.2031433095238095        0        
C4        C        0.46875        0.259259        0.2031433095238095        0        
C1        C        0.4375        0.351852        0.2031433095238095        0        
C2        C        0.46875        0.407408        0.2031433095238095        0        
C3        C        0.4375        0.42592500000000005        0.2031433095238095        0        
C4        C        0.46875        0.37037        0.2031433095238095        0        
C1        C        0.4375        0.46296300000000007        0.2031433095238095        0        
C2        C        0.46875        0.518519        0.2031433095238095        0        
C3        C        0.4375        0.537037        0.2031433095238095        0        
C4        C        0.46875        0.481481        0.2031433095238095        0        
C1        C        0.4375        0.574075        0.2031433095238095        0        
C2        C        0.46875        0.62963        0.2031433095238095        0        
C3        C        0.4375        0.648148        0.2031433095238095        0        
C4        C        0.46875        0.592592        0.2031433095238095        0        
C1        C        0.5        0.018519        0.2031433095238095        0        
C2        C        0.53125        0.074075        0.2031433095238095        0        
C3        C        0.5        0.092592        0.2031433095238095        0        
C4        C        0.53125        0.037037        0.2031433095238095        0        
C1        C        0.5        0.12963        0.2031433095238095        0        
C2        C        0.53125        0.185185        0.2031433095238095        0        
C3        C        0.5        0.203703        0.2031433095238095        0        
C4        C        0.53125        0.148148        0.2031433095238095        0        
C1        C        0.5        0.24074099999999998        0.2031433095238095        0        
C2        C        0.53125        0.296297        0.2031433095238095        0        
C3        C        0.5        0.314815        0.2031433095238095        0        
C4        C        0.53125        0.259259        0.2031433095238095        0        
C1        C        0.5        0.351852        0.2031433095238095        0        
C2        C        0.53125        0.407408        0.2031433095238095        0        
C3        C        0.5        0.42592500000000005        0.2031433095238095        0        
C4        C        0.53125        0.37037        0.2031433095238095        0        
C1        C        0.5        0.46296300000000007        0.2031433095238095        0        
C2        C        0.53125        0.518519        0.2031433095238095        0        
C3        C        0.5        0.537037        0.2031433095238095        0        
C4        C        0.53125        0.481481        0.2031433095238095        0        
C1        C        0.5        0.574075        0.2031433095238095        0        
C2        C        0.53125        0.62963        0.2031433095238095        0        
C3        C        0.5        0.648148        0.2031433095238095        0        
C4        C        0.53125        0.592592        0.2031433095238095        0        
C1        C        0.5625        0.018519        0.2031433095238095        0        
C2        C        0.59375        0.074075        0.2031433095238095        0        
C3        C        0.5625        0.092592        0.2031433095238095        0        
C4        C        0.59375        0.037037        0.2031433095238095        0        
C1        C        0.5625        0.12963        0.2031433095238095        0        
C2        C        0.59375        0.185185        0.2031433095238095        0        
C3        C        0.5625        0.203703        0.2031433095238095        0        
C4        C        0.59375        0.148148        0.2031433095238095        0        
C1        C        0.5625        0.24074099999999998        0.2031433095238095        0        
C2        C        0.59375        0.296297        0.2031433095238095        0        
C3        C        0.5625        0.314815        0.2031433095238095        0        
C4        C        0.59375        0.259259        0.2031433095238095        0        
C1        C        0.5625        0.351852        0.2031433095238095        0        
C2        C        0.59375        0.407408        0.2031433095238095        0        
C3        C        0.5625        0.42592500000000005        0.2031433095238095        0        
C4        C        0.59375        0.37037        0.2031433095238095        0        
C1        C        0.5625        0.46296300000000007        0.2031433095238095        0        
C2        C        0.59375        0.518519        0.2031433095238095        0        
C3        C        0.5625        0.537037        0.2031433095238095        0        
C4        C        0.59375        0.481481        0.2031433095238095        0        
C1        C        0.5625        0.574075        0.2031433095238095        0        
C2        C        0.59375        0.62963        0.2031433095238095        0        
C3        C        0.5625        0.648148        0.2031433095238095        0        
C4        C        0.59375        0.592592        0.2031433095238095        0        
C1        C        0.625        0.018519        0.2031433095238095        0        
C2        C        0.65625        0.074075        0.2031433095238095        0        
C3        C        0.625        0.092592        0.2031433095238095        0        
C4        C        0.65625        0.037037        0.2031433095238095        0        
C1        C        0.625        0.12963        0.2031433095238095        0        
C2        C        0.65625        0.185185        0.2031433095238095        0        
C3        C        0.625        0.203703        0.2031433095238095        0        
C4        C        0.65625        0.148148        0.2031433095238095        0        
C1        C        0.625        0.24074099999999998        0.2031433095238095        0        
C2        C        0.65625        0.296297        0.2031433095238095        0        
C3        C        0.625        0.314815        0.2031433095238095        0        
C4        C        0.65625        0.259259        0.2031433095238095        0        
C1        C        0.625        0.351852        0.2031433095238095        0        
C2        C        0.65625        0.407408        0.2031433095238095        0        
C3        C        0.625        0.42592500000000005        0.2031433095238095        0        
C4        C        0.65625        0.37037        0.2031433095238095        0        
C1        C        0.625        0.46296300000000007        0.2031433095238095        0        
C2        C        0.65625        0.518519        0.2031433095238095        0        
C3        C        0.625        0.537037        0.2031433095238095        0        
C4        C        0.65625        0.481481        0.2031433095238095        0        
C1        C        0.625        0.574075        0.2031433095238095        0        
C2        C        0.65625        0.62963        0.2031433095238095        0        
C3        C        0.625        0.648148        0.2031433095238095        0        
C4        C        0.65625        0.592592        0.2031433095238095        0        
C1        C        0.6875        0.018519        0.2031433095238095        0        
C2        C        0.71875        0.074075        0.2031433095238095        0        
C3        C        0.6875        0.092592        0.2031433095238095        0        
C4        C        0.71875        0.037037        0.2031433095238095        0        
C1        C        0.6875        0.12963        0.2031433095238095        0        
C2        C        0.71875        0.185185        0.2031433095238095        0        
C3        C        0.6875        0.203703        0.2031433095238095        0        
C4        C        0.71875        0.148148        0.2031433095238095        0        
C1        C        0.6875        0.24074099999999998        0.2031433095238095        0        
C2        C        0.71875        0.296297        0.2031433095238095        0        
C3        C        0.6875        0.314815        0.2031433095238095        0        
C4        C        0.71875        0.259259        0.2031433095238095        0        
C1        C        0.6875        0.351852        0.2031433095238095        0        
C2        C        0.71875        0.407408        0.2031433095238095        0        
C3        C        0.6875        0.42592500000000005        0.2031433095238095        0        
C4        C        0.71875        0.37037        0.2031433095238095        0        
C1        C        0.6875        0.46296300000000007        0.2031433095238095        0        
C2        C        0.71875        0.518519        0.2031433095238095        0        
C3        C        0.6875        0.537037        0.2031433095238095        0        
C4        C        0.71875        0.481481        0.2031433095238095        0        
C1        C        0.6875        0.574075        0.2031433095238095        0        
C2        C        0.71875        0.62963        0.2031433095238095        0        
C3        C        0.6875        0.648148        0.2031433095238095        0        
C4        C        0.71875        0.592592        0.2031433095238095        0        
C1        C        0.75        0.018519        0.2031433095238095        0        
C2        C        0.78125        0.074075        0.2031433095238095        0        
C3        C        0.75        0.092592        0.2031433095238095        0        
C4        C        0.78125        0.037037        0.2031433095238095        0        
C1        C        0.75        0.12963        0.2031433095238095        0        
C2        C        0.78125        0.185185        0.2031433095238095        0        
C3        C        0.75        0.203703        0.2031433095238095        0        
C4        C        0.78125        0.148148        0.2031433095238095        0        
C1        C        0.75        0.24074099999999998        0.2031433095238095        0        
C2        C        0.78125        0.296297        0.2031433095238095        0        
C3        C        0.75        0.314815        0.2031433095238095        0        
C4        C        0.78125        0.259259        0.2031433095238095        0        
C1        C        0.75        0.351852        0.2031433095238095        0        
C2        C        0.78125        0.407408        0.2031433095238095        0        
C3        C        0.75        0.42592500000000005        0.2031433095238095        0        
C4        C        0.78125        0.37037        0.2031433095238095        0        
C1        C        0.75        0.46296300000000007        0.2031433095238095        0        
C2        C        0.78125        0.518519        0.2031433095238095        0        
C3        C        0.75        0.537037        0.2031433095238095        0        
C4        C        0.78125        0.481481        0.2031433095238095        0        
C1        C        0.75        0.574075        0.2031433095238095        0        
C2        C        0.78125        0.62963        0.2031433095238095        0        
C3        C        0.75        0.648148        0.2031433095238095        0        
C4        C        0.78125        0.592592        0.2031433095238095        0        
C1        C        0.8125        0.018519        0.2031433095238095        0        
C2        C        0.84375        0.074075        0.2031433095238095        0        
C3        C        0.8125        0.092592        0.2031433095238095        0        
C4        C        0.84375        0.037037        0.2031433095238095        0        
C1        C        0.8125        0.12963        0.2031433095238095        0        
C2        C        0.84375        0.185185        0.2031433095238095        0        
C3        C        0.8125        0.203703        0.2031433095238095        0        
C4        C        0.84375        0.148148        0.2031433095238095        0        
C1        C        0.8125        0.24074099999999998        0.2031433095238095        0        
C2        C        0.84375        0.296297        0.2031433095238095        0        
C3        C        0.8125        0.314815        0.2031433095238095        0        
C4        C        0.84375        0.259259        0.2031433095238095        0        
C1        C        0.8125        0.351852        0.2031433095238095        0        
C2        C        0.84375        0.407408        0.2031433095238095        0        
C3        C        0.8125        0.42592500000000005        0.2031433095238095        0        
C4        C        0.84375        0.37037        0.2031433095238095        0        
C1        C        0.8125        0.46296300000000007        0.2031433095238095        0        
C2        C        0.84375        0.518519        0.2031433095238095        0        
C3        C        0.8125        0.537037        0.2031433095238095        0        
C4        C        0.84375        0.481481        0.2031433095238095        0        
C1        C        0.8125        0.574075        0.2031433095238095        0        
C2        C        0.84375        0.62963        0.2031433095238095        0        
C3        C        0.8125        0.648148        0.2031433095238095        0        
C4        C        0.84375        0.592592        0.2031433095238095        0        
C1        C        0.875        0.018519        0.2031433095238095        0        
C2        C        0.9062500000000001        0.074075        0.2031433095238095        0        
C3        C        0.875        0.092592        0.2031433095238095        0        
C4        C        0.9062500000000001        0.037037        0.2031433095238095        0        
C1        C        0.875        0.12963        0.2031433095238095        0        
C2        C        0.9062500000000001        0.185185        0.2031433095238095        0        
C3        C        0.875        0.203703        0.2031433095238095        0        
C4        C        0.9062500000000001        0.148148        0.2031433095238095        0        
C1        C        0.875        0.24074099999999998        0.2031433095238095        0        
C2        C        0.9062500000000001        0.296297        0.2031433095238095        0        
C3        C        0.875        0.314815        0.2031433095238095        0        
C4        C        0.9062500000000001        0.259259        0.2031433095238095        0        
C1        C        0.875        0.351852        0.2031433095238095        0        
C2        C        0.9062500000000001        0.407408        0.2031433095238095        0        
C3        C        0.875        0.42592500000000005        0.2031433095238095        0        
C4        C        0.9062500000000001        0.37037        0.2031433095238095        0        
C1        C        0.875        0.46296300000000007        0.2031433095238095        0        
C2        C        0.9062500000000001        0.518519        0.2031433095238095        0        
C3        C        0.875        0.537037        0.2031433095238095        0        
C4        C        0.9062500000000001        0.481481        0.2031433095238095        0        
C1        C        0.875        0.574075        0.2031433095238095        0        
C2        C        0.9062500000000001        0.62963        0.2031433095238095        0        
C3        C        0.875        0.648148        0.2031433095238095        0        
C4        C        0.9062500000000001        0.592592        0.2031433095238095        0        
C1        C        0.9375        0.018519        0.2031433095238095        0        
C2        C        0.9687500000000001        0.074075        0.2031433095238095        0        
C3        C        0.9375        0.092592        0.2031433095238095        0        
C4        C        0.9687500000000001        0.037037        0.2031433095238095        0        
C1        C        0.9375        0.12963        0.2031433095238095        0        
C2        C        0.9687500000000001        0.185185        0.2031433095238095        0        
C3        C        0.9375        0.203703        0.2031433095238095        0        
C4        C        0.9687500000000001        0.148148        0.2031433095238095        0        
C1        C        0.9375        0.24074099999999998        0.2031433095238095        0        
C2        C        0.9687500000000001        0.296297        0.2031433095238095        0        
C3        C        0.9375        0.314815        0.2031433095238095        0        
C4        C        0.9687500000000001        0.259259        0.2031433095238095        0        
C1        C        0.9375        0.351852        0.2031433095238095        0        
C2        C        0.9687500000000001        0.407408        0.2031433095238095        0        
C3        C        0.9375        0.42592500000000005        0.2031433095238095        0        
C4        C        0.9687500000000001        0.37037        0.2031433095238095        0        
C1        C        0.9375        0.46296300000000007        0.2031433095238095        0        
C2        C        0.9687500000000001        0.518519        0.2031433095238095        0        
C3        C        0.9375        0.537037        0.2031433095238095        0        
C4        C        0.9687500000000001        0.481481        0.2031433095238095        0        
C1        C        0.9375        0.574075        0.2031433095238095        0        
C2        C        0.9687500000000001        0.62963        0.2031433095238095        0        
C3        C        0.9375        0.648148        0.2031433095238095        0        
C4        C        0.9687500000000001        0.592592        0.2031433095238095        0        
C1        C        0.0        0.685186        0.2031433095238095        0        
C1        C        0.0625        0.685186        0.2031433095238095        0        
C1        C        0.125        0.685186        0.2031433095238095        0        
C1        C        0.1875        0.685186        0.2031433095238095        0        
C1        C        0.25        0.685186        0.2031433095238095        0        
C1        C        0.3125        0.685186        0.2031433095238095        0        
C1        C        0.375        0.685186        0.2031433095238095        0        
C1        C        0.4375        0.685186        0.2031433095238095        0        
C1        C        0.5        0.685186        0.2031433095238095        0        
C1        C        0.5625        0.685186        0.2031433095238095        0        
C1        C        0.625        0.685186        0.2031433095238095        0        
C1        C        0.6875        0.685186        0.2031433095238095        0        
C1        C        0.75        0.685186        0.2031433095238095        0        
C1        C        0.8125        0.685186        0.2031433095238095        0        
C1        C        0.875        0.685186        0.2031433095238095        0        
C1        C        0.9375        0.685186        0.2031433095238095        0        
C2        C        0.03125        0.740741        0.2031433095238095        0        
C2        C        0.09375        0.740741        0.2031433095238095        0        
C2        C        0.15625        0.740741        0.2031433095238095        0        
C2        C        0.21875        0.740741        0.2031433095238095        0        
C2        C        0.28125        0.740741        0.2031433095238095        0        
C2        C        0.34375        0.740741        0.2031433095238095        0        
C2        C        0.40625        0.740741        0.2031433095238095        0        
C2        C        0.46875        0.740741        0.2031433095238095        0        
C2        C        0.53125        0.740741        0.2031433095238095        0        
C2        C        0.59375        0.740741        0.2031433095238095        0        
C2        C        0.65625        0.740741        0.2031433095238095        0        
C2        C        0.71875        0.740741        0.2031433095238095        0        
C2        C        0.78125        0.740741        0.2031433095238095        0        
C2        C        0.84375        0.740741        0.2031433095238095        0        
C2        C        0.9062500000000001        0.740741        0.2031433095238095        0        
C2        C        0.9687500000000001        0.740741        0.2031433095238095        0        
C3        C        0.0        0.759259        0.2031433095238095        0        
C3        C        0.0625        0.759259        0.2031433095238095        0        
C3        C        0.125        0.759259        0.2031433095238095        0        
C3        C        0.1875        0.759259        0.2031433095238095        0        
C3        C        0.25        0.759259        0.2031433095238095        0        
C3        C        0.3125        0.759259        0.2031433095238095        0        
C3        C        0.375        0.759259        0.2031433095238095        0        
C3        C        0.4375        0.759259        0.2031433095238095        0        
C3        C        0.5        0.759259        0.2031433095238095        0        
C3        C        0.5625        0.759259        0.2031433095238095        0        
C3        C        0.625        0.759259        0.2031433095238095        0        
C3        C        0.6875        0.759259        0.2031433095238095        0        
C3        C        0.75        0.759259        0.2031433095238095        0        
C3        C        0.8125        0.759259        0.2031433095238095        0        
C3        C        0.875        0.759259        0.2031433095238095        0        
C3        C        0.9375        0.759259        0.2031433095238095        0        
C4        C        0.03125        0.703703        0.2031433095238095        0        
C4        C        0.09375        0.703703        0.2031433095238095        0        
C4        C        0.15625        0.703703        0.2031433095238095        0        
C4        C        0.21875        0.703703        0.2031433095238095        0        
C4        C        0.28125        0.703703        0.2031433095238095        0        
C4        C        0.34375        0.703703        0.2031433095238095        0        
C4        C        0.40625        0.703703        0.2031433095238095        0        
C4        C        0.46875        0.703703        0.2031433095238095        0        
C4        C        0.53125        0.703703        0.2031433095238095        0        
C4        C        0.59375        0.703703        0.2031433095238095        0        
C4        C        0.65625        0.703703        0.2031433095238095        0        
C4        C        0.71875        0.703703        0.2031433095238095        0        
C4        C        0.78125        0.703703        0.2031433095238095        0        
C4        C        0.84375        0.703703        0.2031433095238095        0        
C4        C        0.9062500000000001        0.703703        0.2031433095238095        0        
C4        C        0.9687500000000001        0.703703        0.2031433095238095        0        
C1        C        0.0        0.796297        0.2031433095238095        0        
C1        C        0.0625        0.796297        0.2031433095238095        0        
C1        C        0.125        0.796297        0.2031433095238095        0        
C1        C        0.1875        0.796297        0.2031433095238095        0        
C1        C        0.25        0.796297        0.2031433095238095        0        
C1        C        0.3125        0.796297        0.2031433095238095        0        
C1        C        0.375        0.796297        0.2031433095238095        0        
C1        C        0.4375        0.796297        0.2031433095238095        0        
C1        C        0.5        0.796297        0.2031433095238095        0        
C1        C        0.5625        0.796297        0.2031433095238095        0        
C1        C        0.625        0.796297        0.2031433095238095        0        
C1        C        0.6875        0.796297        0.2031433095238095        0        
C1        C        0.75        0.796297        0.2031433095238095        0        
C1        C        0.8125        0.796297        0.2031433095238095        0        
C1        C        0.875        0.796297        0.2031433095238095        0        
C1        C        0.9375        0.796297        0.2031433095238095        0        
C2        C        0.03125        0.851852        0.2031433095238095        0        
C2        C        0.09375        0.851852        0.2031433095238095        0        
C2        C        0.15625        0.851852        0.2031433095238095        0        
C2        C        0.21875        0.851852        0.2031433095238095        0        
C2        C        0.28125        0.851852        0.2031433095238095        0        
C2        C        0.34375        0.851852        0.2031433095238095        0        
C2        C        0.40625        0.851852        0.2031433095238095        0        
C2        C        0.46875        0.851852        0.2031433095238095        0        
C2        C        0.53125        0.851852        0.2031433095238095        0        
C2        C        0.59375        0.851852        0.2031433095238095        0        
C2        C        0.65625        0.851852        0.2031433095238095        0        
C2        C        0.71875        0.851852        0.2031433095238095        0        
C2        C        0.78125        0.851852        0.2031433095238095        0        
C2        C        0.84375        0.851852        0.2031433095238095        0        
C2        C        0.9062500000000001        0.851852        0.2031433095238095        0        
C2        C        0.9687500000000001        0.851852        0.2031433095238095        0        
C3        C        0.0        0.87037        0.2031433095238095        0        
C3        C        0.0625        0.87037        0.2031433095238095        0        
C3        C        0.125        0.87037        0.2031433095238095        0        
C3        C        0.1875        0.87037        0.2031433095238095        0        
C3        C        0.25        0.87037        0.2031433095238095        0        
C3        C        0.3125        0.87037        0.2031433095238095        0        
C3        C        0.375        0.87037        0.2031433095238095        0        
C3        C        0.4375        0.87037        0.2031433095238095        0        
C3        C        0.5        0.87037        0.2031433095238095        0        
C3        C        0.5625        0.87037        0.2031433095238095        0        
C3        C        0.625        0.87037        0.2031433095238095        0        
C3        C        0.6875        0.87037        0.2031433095238095        0        
C3        C        0.75        0.87037        0.2031433095238095        0        
C3        C        0.8125        0.87037        0.2031433095238095        0        
C3        C        0.875        0.87037        0.2031433095238095        0        
C3        C        0.9375        0.87037        0.2031433095238095        0        
C4        C        0.03125        0.814814        0.2031433095238095        0        
C4        C        0.09375        0.814814        0.2031433095238095        0        
C4        C        0.15625        0.814814        0.2031433095238095        0        
C4        C        0.21875        0.814814        0.2031433095238095        0        
C4        C        0.28125        0.814814        0.2031433095238095        0        
C4        C        0.34375        0.814814        0.2031433095238095        0        
C4        C        0.40625        0.814814        0.2031433095238095        0        
C4        C        0.46875        0.814814        0.2031433095238095        0        
C4        C        0.53125        0.814814        0.2031433095238095        0        
C4        C        0.59375        0.814814        0.2031433095238095        0        
C4        C        0.65625        0.814814        0.2031433095238095        0        
C4        C        0.71875        0.814814        0.2031433095238095        0        
C4        C        0.78125        0.814814        0.2031433095238095        0        
C4        C        0.84375        0.814814        0.2031433095238095        0        
C4        C        0.9062500000000001        0.814814        0.2031433095238095        0        
C4        C        0.9687500000000001        0.814814        0.2031433095238095        0        
C1        C        0.0        0.907408        0.2031433095238095        0        
C1        C        0.0625        0.907408        0.2031433095238095        0        
C1        C        0.125        0.907408        0.2031433095238095        0        
C1        C        0.1875        0.907408        0.2031433095238095        0        
C1        C        0.25        0.907408        0.2031433095238095        0        
C1        C        0.3125        0.907408        0.2031433095238095        0        
C1        C        0.375        0.907408        0.2031433095238095        0        
C1        C        0.4375        0.907408        0.2031433095238095        0        
C1        C        0.5        0.907408        0.2031433095238095        0        
C1        C        0.5625        0.907408        0.2031433095238095        0        
C1        C        0.625        0.907408        0.2031433095238095        0        
C1        C        0.6875        0.907408        0.2031433095238095        0        
C1        C        0.75        0.907408        0.2031433095238095        0        
C1        C        0.8125        0.907408        0.2031433095238095        0        
C1        C        0.875        0.907408        0.2031433095238095        0        
C1        C        0.9375        0.907408        0.2031433095238095        0        
C2        C        0.03125        0.962963        0.2031433095238095        0        
C2        C        0.09375        0.962963        0.2031433095238095        0        
C2        C        0.15625        0.962963        0.2031433095238095        0        
C2        C        0.21875        0.962963        0.2031433095238095        0        
C2        C        0.28125        0.962963        0.2031433095238095        0        
C2        C        0.34375        0.962963        0.2031433095238095        0        
C2        C        0.40625        0.962963        0.2031433095238095        0        
C2        C        0.46875        0.962963        0.2031433095238095        0        
C2        C        0.53125        0.962963        0.2031433095238095        0        
C2        C        0.59375        0.962963        0.2031433095238095        0        
C2        C        0.65625        0.962963        0.2031433095238095        0        
C2        C        0.71875        0.962963        0.2031433095238095        0        
C2        C        0.78125        0.962963        0.2031433095238095        0        
C2        C        0.84375        0.962963        0.2031433095238095        0        
C2        C        0.9062500000000001        0.962963        0.2031433095238095        0        
C2        C        0.9687500000000001        0.962963        0.2031433095238095        0        
C3        C        0.0        0.9814809999999999        0.2031433095238095        0        
C3        C        0.0625        0.9814809999999999        0.2031433095238095        0        
C3        C        0.125        0.9814809999999999        0.2031433095238095        0        
C3        C        0.1875        0.9814809999999999        0.2031433095238095        0        
C3        C        0.25        0.9814809999999999        0.2031433095238095        0        
C3        C        0.3125        0.9814809999999999        0.2031433095238095        0        
C3        C        0.375        0.9814809999999999        0.2031433095238095        0        
C3        C        0.4375        0.9814809999999999        0.2031433095238095        0        
C3        C        0.5        0.9814809999999999        0.2031433095238095        0        
C3        C        0.5625        0.9814809999999999        0.2031433095238095        0        
C3        C        0.625        0.9814809999999999        0.2031433095238095        0        
C3        C        0.6875        0.9814809999999999        0.2031433095238095        0        
C3        C        0.75        0.9814809999999999        0.2031433095238095        0        
C3        C        0.8125        0.9814809999999999        0.2031433095238095        0        
C3        C        0.875        0.9814809999999999        0.2031433095238095        0        
C3        C        0.9375        0.9814809999999999        0.2031433095238095        0        
C4        C        0.03125        0.925925        0.2031433095238095        0        
C4        C        0.09375        0.925925        0.2031433095238095        0        
C4        C        0.15625        0.925925        0.2031433095238095        0        
C4        C        0.21875        0.925925        0.2031433095238095        0        
C4        C        0.28125        0.925925        0.2031433095238095        0        
C4        C        0.34375        0.925925        0.2031433095238095        0        
C4        C        0.40625        0.925925        0.2031433095238095        0        
C4        C        0.46875        0.925925        0.2031433095238095        0        
C4        C        0.53125        0.925925        0.2031433095238095        0        
C4        C        0.59375        0.925925        0.2031433095238095        0        
C4        C        0.65625        0.925925        0.2031433095238095        0        
C4        C        0.71875        0.925925        0.2031433095238095        0        
C4        C        0.78125        0.925925        0.2031433095238095        0        
C4        C        0.84375        0.925925        0.2031433095238095        0        
C4        C        0.9062500000000001        0.925925        0.2031433095238095        0        
C4        C        0.9687500000000001        0.925925        0.2031433095238095        0        
C_FG        C        0.0        0.018519        0.33607930952380954        0.2        
C2        C        0.03125        0.074075        0.33607930952380954        0        
C3        C        0.0        0.092592        0.33607930952380954        0        
C4        C        0.03125        0.037037        0.33607930952380954        0        
C_FG        C        0.0        0.12963        0.33607930952380954        0.2        
C2        C        0.03125        0.185185        0.33607930952380954        0        
C3        C        0.0        0.203703        0.33607930952380954        0        
C4        C        0.03125        0.148148        0.33607930952380954        0        
C_FG        C        0.0        0.24074099999999998        0.33607930952380954        0.2        
C2        C        0.03125        0.296297        0.33607930952380954        0        
C3        C        0.0        0.314815        0.33607930952380954        0        
C4        C        0.03125        0.259259        0.33607930952380954        0        
C_FG        C        0.0        0.351852        0.33607930952380954        0.2        
C2        C        0.03125        0.407408        0.33607930952380954        0        
C3        C        0.0        0.42592500000000005        0.33607930952380954        0        
C4        C        0.03125        0.37037        0.33607930952380954        0        
C_FG        C        0.0        0.46296300000000007        0.33607930952380954        0.2        
C2        C        0.03125        0.518519        0.33607930952380954        0        
C3        C        0.0        0.537037        0.33607930952380954        0        
C4        C        0.03125        0.481481        0.33607930952380954        0        
C_FG        C        0.0        0.574075        0.33607930952380954        0.2        
C2        C        0.03125        0.62963        0.33607930952380954        0        
C3        C        0.0        0.648148        0.33607930952380954        0        
C4        C        0.03125        0.592592        0.33607930952380954        0        
C1        C        0.0625        0.018519        0.33607930952380954        0        
C2        C        0.09375        0.074075        0.33607930952380954        0        
C3        C        0.0625        0.092592        0.33607930952380954        0        
C4        C        0.09375        0.037037        0.33607930952380954        0        
C1        C        0.0625        0.12963        0.33607930952380954        0        
C2        C        0.09375        0.185185        0.33607930952380954        0        
C3        C        0.0625        0.203703        0.33607930952380954        0        
C4        C        0.09375        0.148148        0.33607930952380954        0        
C1        C        0.0625        0.24074099999999998        0.33607930952380954        0        
C2        C        0.09375        0.296297        0.33607930952380954        0        
C3        C        0.0625        0.314815        0.33607930952380954        0        
C4        C        0.09375        0.259259        0.33607930952380954        0        
C1        C        0.0625        0.351852        0.33607930952380954        0        
C2        C        0.09375        0.407408        0.33607930952380954        0        
C3        C        0.0625        0.42592500000000005        0.33607930952380954        0        
C4        C        0.09375        0.37037        0.33607930952380954        0        
C1        C        0.0625        0.46296300000000007        0.33607930952380954        0        
C2        C        0.09375        0.518519        0.33607930952380954        0        
C3        C        0.0625        0.537037        0.33607930952380954        0        
C4        C        0.09375        0.481481        0.33607930952380954        0        
C1        C        0.0625        0.574075        0.33607930952380954        0        
C2        C        0.09375        0.62963        0.33607930952380954        0        
C3        C        0.0625        0.648148        0.33607930952380954        0        
C4        C        0.09375        0.592592        0.33607930952380954        0        
C_FG        C        0.125        0.018519        0.33607930952380954        0.2        
C2        C        0.15625        0.074075        0.33607930952380954        0        
C3        C        0.125        0.092592        0.33607930952380954        0        
C4        C        0.15625        0.037037        0.33607930952380954        0        
C_FG        C        0.125        0.12963        0.33607930952380954        0.2        
C2        C        0.15625        0.185185        0.33607930952380954        0        
C3        C        0.125        0.203703        0.33607930952380954        0        
C4        C        0.15625        0.148148        0.33607930952380954        0        
C_FG        C        0.125        0.24074099999999998        0.33607930952380954        0.2        
C2        C        0.15625        0.296297        0.33607930952380954        0        
C3        C        0.125        0.314815        0.33607930952380954        0        
C4        C        0.15625        0.259259        0.33607930952380954        0        
C_FG        C        0.125        0.351852        0.33607930952380954        0.2        
C2        C        0.15625        0.407408        0.33607930952380954        0        
C3        C        0.125        0.42592500000000005        0.33607930952380954        0        
C4        C        0.15625        0.37037        0.33607930952380954        0        
C_FG        C        0.125        0.46296300000000007        0.33607930952380954        0.2        
C2        C        0.15625        0.518519        0.33607930952380954        0        
C3        C        0.125        0.537037        0.33607930952380954        0        
C4        C        0.15625        0.481481        0.33607930952380954        0        
C_FG        C        0.125        0.574075        0.33607930952380954        0.2        
C2        C        0.15625        0.62963        0.33607930952380954        0        
C3        C        0.125        0.648148        0.33607930952380954        0        
C4        C        0.15625        0.592592        0.33607930952380954        0        
C1        C        0.1875        0.018519        0.33607930952380954        0        
C2        C        0.21875        0.074075        0.33607930952380954        0        
C3        C        0.1875        0.092592        0.33607930952380954        0        
C4        C        0.21875        0.037037        0.33607930952380954        0        
C1        C        0.1875        0.12963        0.33607930952380954        0        
C2        C        0.21875        0.185185        0.33607930952380954        0        
C3        C        0.1875        0.203703        0.33607930952380954        0        
C4        C        0.21875        0.148148        0.33607930952380954        0        
C1        C        0.1875        0.24074099999999998        0.33607930952380954        0        
C2        C        0.21875        0.296297        0.33607930952380954        0        
C3        C        0.1875        0.314815        0.33607930952380954        0        
C4        C        0.21875        0.259259        0.33607930952380954        0        
C1        C        0.1875        0.351852        0.33607930952380954        0        
C2        C        0.21875        0.407408        0.33607930952380954        0        
C3        C        0.1875        0.42592500000000005        0.33607930952380954        0        
C4        C        0.21875        0.37037        0.33607930952380954        0        
C1        C        0.1875        0.46296300000000007        0.33607930952380954        0        
C2        C        0.21875        0.518519        0.33607930952380954        0        
C3        C        0.1875        0.537037        0.33607930952380954        0        
C4        C        0.21875        0.481481        0.33607930952380954        0        
C1        C        0.1875        0.574075        0.33607930952380954        0        
C2        C        0.21875        0.62963        0.33607930952380954        0        
C3        C        0.1875        0.648148        0.33607930952380954        0        
C4        C        0.21875        0.592592        0.33607930952380954        0        
C_FG        C        0.25        0.018519        0.33607930952380954        0.2        
C2        C        0.28125        0.074075        0.33607930952380954        0        
C3        C        0.25        0.092592        0.33607930952380954        0        
C4        C        0.28125        0.037037        0.33607930952380954        0        
C_FG        C        0.25        0.12963        0.33607930952380954        0.2        
C2        C        0.28125        0.185185        0.33607930952380954        0        
C3        C        0.25        0.203703        0.33607930952380954        0        
C4        C        0.28125        0.148148        0.33607930952380954        0        
C_FG        C        0.25        0.24074099999999998        0.33607930952380954        0.2        
C2        C        0.28125        0.296297        0.33607930952380954        0        
C3        C        0.25        0.314815        0.33607930952380954        0        
C4        C        0.28125        0.259259        0.33607930952380954        0        
C_FG        C        0.25        0.351852        0.33607930952380954        0.2        
C2        C        0.28125        0.407408        0.33607930952380954        0        
C3        C        0.25        0.42592500000000005        0.33607930952380954        0        
C4        C        0.28125        0.37037        0.33607930952380954        0        
C_FG        C        0.25        0.46296300000000007        0.33607930952380954        0.2        
C2        C        0.28125        0.518519        0.33607930952380954        0        
C3        C        0.25        0.537037        0.33607930952380954        0        
C4        C        0.28125        0.481481        0.33607930952380954        0        
C_FG        C        0.25        0.574075        0.33607930952380954        0.2        
C2        C        0.28125        0.62963        0.33607930952380954        0        
C3        C        0.25        0.648148        0.33607930952380954        0        
C4        C        0.28125        0.592592        0.33607930952380954        0        
C1        C        0.3125        0.018519        0.33607930952380954        0        
C2        C        0.34375        0.074075        0.33607930952380954        0        
C3        C        0.3125        0.092592        0.33607930952380954        0        
C4        C        0.34375        0.037037        0.33607930952380954        0        
C1        C        0.3125        0.12963        0.33607930952380954        0        
C2        C        0.34375        0.185185        0.33607930952380954        0        
C3        C        0.3125        0.203703        0.33607930952380954        0        
C4        C        0.34375        0.148148        0.33607930952380954        0        
C1        C        0.3125        0.24074099999999998        0.33607930952380954        0        
C2        C        0.34375        0.296297        0.33607930952380954        0        
C3        C        0.3125        0.314815        0.33607930952380954        0        
C4        C        0.34375        0.259259        0.33607930952380954        0        
C1        C        0.3125        0.351852        0.33607930952380954        0        
C2        C        0.34375        0.407408        0.33607930952380954        0        
C3        C        0.3125        0.42592500000000005        0.33607930952380954        0        
C4        C        0.34375        0.37037        0.33607930952380954        0        
C1        C        0.3125        0.46296300000000007        0.33607930952380954        0        
C2        C        0.34375        0.518519        0.33607930952380954        0        
C3        C        0.3125        0.537037        0.33607930952380954        0        
C4        C        0.34375        0.481481        0.33607930952380954        0        
C1        C        0.3125        0.574075        0.33607930952380954        0        
C2        C        0.34375        0.62963        0.33607930952380954        0        
C3        C        0.3125        0.648148        0.33607930952380954        0        
C4        C        0.34375        0.592592        0.33607930952380954        0        
C_FG        C        0.375        0.018519        0.33607930952380954        0.2        
C2        C        0.40625        0.074075        0.33607930952380954        0        
C3        C        0.375        0.092592        0.33607930952380954        0        
C4        C        0.40625        0.037037        0.33607930952380954        0        
C_FG        C        0.375        0.12963        0.33607930952380954        0.2        
C2        C        0.40625        0.185185        0.33607930952380954        0        
C3        C        0.375        0.203703        0.33607930952380954        0        
C4        C        0.40625        0.148148        0.33607930952380954        0        
C_FG        C        0.375        0.24074099999999998        0.33607930952380954        0.2        
C2        C        0.40625        0.296297        0.33607930952380954        0        
C3        C        0.375        0.314815        0.33607930952380954        0        
C4        C        0.40625        0.259259        0.33607930952380954        0        
C_FG        C        0.375        0.351852        0.33607930952380954        0.2        
C2        C        0.40625        0.407408        0.33607930952380954        0        
C3        C        0.375        0.42592500000000005        0.33607930952380954        0        
C4        C        0.40625        0.37037        0.33607930952380954        0        
C_FG        C        0.375        0.46296300000000007        0.33607930952380954        0.2        
C2        C        0.40625        0.518519        0.33607930952380954        0        
C3        C        0.375        0.537037        0.33607930952380954        0        
C4        C        0.40625        0.481481        0.33607930952380954        0        
C_FG        C        0.375        0.574075        0.33607930952380954        0.2        
C2        C        0.40625        0.62963        0.33607930952380954        0        
C3        C        0.375        0.648148        0.33607930952380954        0        
C4        C        0.40625        0.592592        0.33607930952380954        0        
C1        C        0.4375        0.018519        0.33607930952380954        0        
C2        C        0.46875        0.074075        0.33607930952380954        0        
C3        C        0.4375        0.092592        0.33607930952380954        0        
C4        C        0.46875        0.037037        0.33607930952380954        0        
C1        C        0.4375        0.12963        0.33607930952380954        0        
C2        C        0.46875        0.185185        0.33607930952380954        0        
C3        C        0.4375        0.203703        0.33607930952380954        0        
C4        C        0.46875        0.148148        0.33607930952380954        0        
C1        C        0.4375        0.24074099999999998        0.33607930952380954        0        
C2        C        0.46875        0.296297        0.33607930952380954        0        
C3        C        0.4375        0.314815        0.33607930952380954        0        
C4        C        0.46875        0.259259        0.33607930952380954        0        
C1        C        0.4375        0.351852        0.33607930952380954        0        
C2        C        0.46875        0.407408        0.33607930952380954        0        
C3        C        0.4375        0.42592500000000005        0.33607930952380954        0        
C4        C        0.46875        0.37037        0.33607930952380954        0        
C1        C        0.4375        0.46296300000000007        0.33607930952380954        0        
C2        C        0.46875        0.518519        0.33607930952380954        0        
C3        C        0.4375        0.537037        0.33607930952380954        0        
C4        C        0.46875        0.481481        0.33607930952380954        0        
C1        C        0.4375        0.574075        0.33607930952380954        0        
C2        C        0.46875        0.62963        0.33607930952380954        0        
C3        C        0.4375        0.648148        0.33607930952380954        0        
C4        C        0.46875        0.592592        0.33607930952380954        0        
C_FG        C        0.5        0.018519        0.33607930952380954        0.2        
C2        C        0.53125        0.074075        0.33607930952380954        0        
C3        C        0.5        0.092592        0.33607930952380954        0        
C4        C        0.53125        0.037037        0.33607930952380954        0        
C_FG        C        0.5        0.12963        0.33607930952380954        0.2        
C2        C        0.53125        0.185185        0.33607930952380954        0        
C3        C        0.5        0.203703        0.33607930952380954        0        
C4        C        0.53125        0.148148        0.33607930952380954        0        
C_FG        C        0.5        0.24074099999999998        0.33607930952380954        0.2        
C2        C        0.53125        0.296297        0.33607930952380954        0        
C3        C        0.5        0.314815        0.33607930952380954        0        
C4        C        0.53125        0.259259        0.33607930952380954        0        
C_FG        C        0.5        0.351852        0.33607930952380954        0.2        
C2        C        0.53125        0.407408        0.33607930952380954        0        
C3        C        0.5        0.42592500000000005        0.33607930952380954        0        
C4        C        0.53125        0.37037        0.33607930952380954        0        
C_FG        C        0.5        0.46296300000000007        0.33607930952380954        0.2        
C2        C        0.53125        0.518519        0.33607930952380954        0        
C3        C        0.5        0.537037        0.33607930952380954        0        
C4        C        0.53125        0.481481        0.33607930952380954        0        
C_FG        C        0.5        0.574075        0.33607930952380954        0.2        
C2        C        0.53125        0.62963        0.33607930952380954        0        
C3        C        0.5        0.648148        0.33607930952380954        0        
C4        C        0.53125        0.592592        0.33607930952380954        0        
C1        C        0.5625        0.018519        0.33607930952380954        0        
C2        C        0.59375        0.074075        0.33607930952380954        0        
C3        C        0.5625        0.092592        0.33607930952380954        0        
C4        C        0.59375        0.037037        0.33607930952380954        0        
C1        C        0.5625        0.12963        0.33607930952380954        0        
C2        C        0.59375        0.185185        0.33607930952380954        0        
C3        C        0.5625        0.203703        0.33607930952380954        0        
C4        C        0.59375        0.148148        0.33607930952380954        0        
C1        C        0.5625        0.24074099999999998        0.33607930952380954        0        
C2        C        0.59375        0.296297        0.33607930952380954        0        
C3        C        0.5625        0.314815        0.33607930952380954        0        
C4        C        0.59375        0.259259        0.33607930952380954        0        
C1        C        0.5625        0.351852        0.33607930952380954        0        
C2        C        0.59375        0.407408        0.33607930952380954        0        
C3        C        0.5625        0.42592500000000005        0.33607930952380954        0        
C4        C        0.59375        0.37037        0.33607930952380954        0        
C1        C        0.5625        0.46296300000000007        0.33607930952380954        0        
C2        C        0.59375        0.518519        0.33607930952380954        0        
C3        C        0.5625        0.537037        0.33607930952380954        0        
C4        C        0.59375        0.481481        0.33607930952380954        0        
C1        C        0.5625        0.574075        0.33607930952380954        0        
C2        C        0.59375        0.62963        0.33607930952380954        0        
C3        C        0.5625        0.648148        0.33607930952380954        0        
C4        C        0.59375        0.592592        0.33607930952380954        0        
C_FG        C        0.625        0.018519        0.33607930952380954        0.2        
C2        C        0.65625        0.074075        0.33607930952380954        0        
C3        C        0.625        0.092592        0.33607930952380954        0        
C4        C        0.65625        0.037037        0.33607930952380954        0        
C_FG        C        0.625        0.12963        0.33607930952380954        0.2        
C2        C        0.65625        0.185185        0.33607930952380954        0        
C3        C        0.625        0.203703        0.33607930952380954        0        
C4        C        0.65625        0.148148        0.33607930952380954        0        
C_FG        C        0.625        0.24074099999999998        0.33607930952380954        0.2        
C2        C        0.65625        0.296297        0.33607930952380954        0        
C3        C        0.625        0.314815        0.33607930952380954        0        
C4        C        0.65625        0.259259        0.33607930952380954        0        
C_FG        C        0.625        0.351852        0.33607930952380954        0.2        
C2        C        0.65625        0.407408        0.33607930952380954        0        
C3        C        0.625        0.42592500000000005        0.33607930952380954        0        
C4        C        0.65625        0.37037        0.33607930952380954        0        
C_FG        C        0.625        0.46296300000000007        0.33607930952380954        0.2        
C2        C        0.65625        0.518519        0.33607930952380954        0        
C3        C        0.625        0.537037        0.33607930952380954        0        
C4        C        0.65625        0.481481        0.33607930952380954        0        
C_FG        C        0.625        0.574075        0.33607930952380954        0.2        
C2        C        0.65625        0.62963        0.33607930952380954        0        
C3        C        0.625        0.648148        0.33607930952380954        0        
C4        C        0.65625        0.592592        0.33607930952380954        0        
C1        C        0.6875        0.018519        0.33607930952380954        0        
C2        C        0.71875        0.074075        0.33607930952380954        0        
C3        C        0.6875        0.092592        0.33607930952380954        0        
C4        C        0.71875        0.037037        0.33607930952380954        0        
C1        C        0.6875        0.12963        0.33607930952380954        0        
C2        C        0.71875        0.185185        0.33607930952380954        0        
C3        C        0.6875        0.203703        0.33607930952380954        0        
C4        C        0.71875        0.148148        0.33607930952380954        0        
C1        C        0.6875        0.24074099999999998        0.33607930952380954        0        
C2        C        0.71875        0.296297        0.33607930952380954        0        
C3        C        0.6875        0.314815        0.33607930952380954        0        
C4        C        0.71875        0.259259        0.33607930952380954        0        
C1        C        0.6875        0.351852        0.33607930952380954        0        
C2        C        0.71875        0.407408        0.33607930952380954        0        
C3        C        0.6875        0.42592500000000005        0.33607930952380954        0        
C4        C        0.71875        0.37037        0.33607930952380954        0        
C1        C        0.6875        0.46296300000000007        0.33607930952380954        0        
C2        C        0.71875        0.518519        0.33607930952380954        0        
C3        C        0.6875        0.537037        0.33607930952380954        0        
C4        C        0.71875        0.481481        0.33607930952380954        0        
C1        C        0.6875        0.574075        0.33607930952380954        0        
C2        C        0.71875        0.62963        0.33607930952380954        0        
C3        C        0.6875        0.648148        0.33607930952380954        0        
C4        C        0.71875        0.592592        0.33607930952380954        0        
C_FG        C        0.75        0.018519        0.33607930952380954        0.2        
C2        C        0.78125        0.074075        0.33607930952380954        0        
C3        C        0.75        0.092592        0.33607930952380954        0        
C4        C        0.78125        0.037037        0.33607930952380954        0        
C_FG        C        0.75        0.12963        0.33607930952380954        0.2        
C2        C        0.78125        0.185185        0.33607930952380954        0        
C3        C        0.75        0.203703        0.33607930952380954        0        
C4        C        0.78125        0.148148        0.33607930952380954        0        
C_FG        C        0.75        0.24074099999999998        0.33607930952380954        0.2        
C2        C        0.78125        0.296297        0.33607930952380954        0        
C3        C        0.75        0.314815        0.33607930952380954        0        
C4        C        0.78125        0.259259        0.33607930952380954        0        
C_FG        C        0.75        0.351852        0.33607930952380954        0.2        
C2        C        0.78125        0.407408        0.33607930952380954        0        
C3        C        0.75        0.42592500000000005        0.33607930952380954        0        
C4        C        0.78125        0.37037        0.33607930952380954        0        
C_FG        C        0.75        0.46296300000000007        0.33607930952380954        0.2        
C2        C        0.78125        0.518519        0.33607930952380954        0        
C3        C        0.75        0.537037        0.33607930952380954        0        
C4        C        0.78125        0.481481        0.33607930952380954        0        
C_FG        C        0.75        0.574075        0.33607930952380954        0.2        
C2        C        0.78125        0.62963        0.33607930952380954        0        
C3        C        0.75        0.648148        0.33607930952380954        0        
C4        C        0.78125        0.592592        0.33607930952380954        0        
C1        C        0.8125        0.018519        0.33607930952380954        0        
C2        C        0.84375        0.074075        0.33607930952380954        0        
C3        C        0.8125        0.092592        0.33607930952380954        0        
C4        C        0.84375        0.037037        0.33607930952380954        0        
C1        C        0.8125        0.12963        0.33607930952380954        0        
C2        C        0.84375        0.185185        0.33607930952380954        0        
C3        C        0.8125        0.203703        0.33607930952380954        0        
C4        C        0.84375        0.148148        0.33607930952380954        0        
C1        C        0.8125        0.24074099999999998        0.33607930952380954        0        
C2        C        0.84375        0.296297        0.33607930952380954        0        
C3        C        0.8125        0.314815        0.33607930952380954        0        
C4        C        0.84375        0.259259        0.33607930952380954        0        
C1        C        0.8125        0.351852        0.33607930952380954        0        
C2        C        0.84375        0.407408        0.33607930952380954        0        
C3        C        0.8125        0.42592500000000005        0.33607930952380954        0        
C4        C        0.84375        0.37037        0.33607930952380954        0        
C1        C        0.8125        0.46296300000000007        0.33607930952380954        0        
C2        C        0.84375        0.518519        0.33607930952380954        0        
C3        C        0.8125        0.537037        0.33607930952380954        0        
C4        C        0.84375        0.481481        0.33607930952380954        0        
C1        C        0.8125        0.574075        0.33607930952380954        0        
C2        C        0.84375        0.62963        0.33607930952380954        0        
C3        C        0.8125        0.648148        0.33607930952380954        0        
C4        C        0.84375        0.592592        0.33607930952380954        0        
C_FG        C        0.875        0.018519        0.33607930952380954        0.2        
C2        C        0.9062500000000001        0.074075        0.33607930952380954        0        
C3        C        0.875        0.092592        0.33607930952380954        0        
C4        C        0.9062500000000001        0.037037        0.33607930952380954        0        
C_FG        C        0.875        0.12963        0.33607930952380954        0.2        
C2        C        0.9062500000000001        0.185185        0.33607930952380954        0        
C3        C        0.875        0.203703        0.33607930952380954        0        
C4        C        0.9062500000000001        0.148148        0.33607930952380954        0        
C_FG        C        0.875        0.24074099999999998        0.33607930952380954        0.2        
C2        C        0.9062500000000001        0.296297        0.33607930952380954        0        
C3        C        0.875        0.314815        0.33607930952380954        0        
C4        C        0.9062500000000001        0.259259        0.33607930952380954        0        
C_FG        C        0.875        0.351852        0.33607930952380954        0.2        
C2        C        0.9062500000000001        0.407408        0.33607930952380954        0        
C3        C        0.875        0.42592500000000005        0.33607930952380954        0        
C4        C        0.9062500000000001        0.37037        0.33607930952380954        0        
C_FG        C        0.875        0.46296300000000007        0.33607930952380954        0.2        
C2        C        0.9062500000000001        0.518519        0.33607930952380954        0        
C3        C        0.875        0.537037        0.33607930952380954        0        
C4        C        0.9062500000000001        0.481481        0.33607930952380954        0        
C_FG        C        0.875        0.574075        0.33607930952380954        0.2        
C2        C        0.9062500000000001        0.62963        0.33607930952380954        0        
C3        C        0.875        0.648148        0.33607930952380954        0        
C4        C        0.9062500000000001        0.592592        0.33607930952380954        0        
C1        C        0.9375        0.018519        0.33607930952380954        0        
C2        C        0.9687500000000001        0.074075        0.33607930952380954        0        
C3        C        0.9375        0.092592        0.33607930952380954        0        
C4        C        0.9687500000000001        0.037037        0.33607930952380954        0        
C1        C        0.9375        0.12963        0.33607930952380954        0        
C2        C        0.9687500000000001        0.185185        0.33607930952380954        0        
C3        C        0.9375        0.203703        0.33607930952380954        0        
C4        C        0.9687500000000001        0.148148        0.33607930952380954        0        
C1        C        0.9375        0.24074099999999998        0.33607930952380954        0        
C2        C        0.9687500000000001        0.296297        0.33607930952380954        0        
C3        C        0.9375        0.314815        0.33607930952380954        0        
C4        C        0.9687500000000001        0.259259        0.33607930952380954        0        
C1        C        0.9375        0.351852        0.33607930952380954        0        
C2        C        0.9687500000000001        0.407408        0.33607930952380954        0        
C3        C        0.9375        0.42592500000000005        0.33607930952380954        0        
C4        C        0.9687500000000001        0.37037        0.33607930952380954        0        
C1        C        0.9375        0.46296300000000007        0.33607930952380954        0        
C2        C        0.9687500000000001        0.518519        0.33607930952380954        0        
C3        C        0.9375        0.537037        0.33607930952380954        0        
C4        C        0.9687500000000001        0.481481        0.33607930952380954        0        
C1        C        0.9375        0.574075        0.33607930952380954        0        
C2        C        0.9687500000000001        0.62963        0.33607930952380954        0        
C3        C        0.9375        0.648148        0.33607930952380954        0        
C4        C        0.9687500000000001        0.592592        0.33607930952380954        0        
C_FG        C        0.0        0.685186        0.33607930952380954        0.2        
C1        C        0.0625        0.685186        0.33607930952380954        0        
C_FG        C        0.125        0.685186        0.33607930952380954        0.2        
C1        C        0.1875        0.685186        0.33607930952380954        0        
C_FG        C        0.25        0.685186        0.33607930952380954        0.2        
C1        C        0.3125        0.685186        0.33607930952380954        0        
C_FG        C        0.375        0.685186        0.33607930952380954        0.2        
C1        C        0.4375        0.685186        0.33607930952380954        0        
C_FG        C        0.5        0.685186        0.33607930952380954        0.2        
C1        C        0.5625        0.685186        0.33607930952380954        0        
C_FG        C        0.625        0.685186        0.33607930952380954        0.2        
C1        C        0.6875        0.685186        0.33607930952380954        0        
C_FG        C        0.75        0.685186        0.33607930952380954        0.2        
C1        C        0.8125        0.685186        0.33607930952380954        0        
C_FG        C        0.875        0.685186        0.33607930952380954        0.2        
C1        C        0.9375        0.685186        0.33607930952380954        0        
C2        C        0.03125        0.740741        0.33607930952380954        0        
C2        C        0.09375        0.740741        0.33607930952380954        0        
C2        C        0.15625        0.740741        0.33607930952380954        0        
C2        C        0.21875        0.740741        0.33607930952380954        0        
C2        C        0.28125        0.740741        0.33607930952380954        0        
C2        C        0.34375        0.740741        0.33607930952380954        0        
C2        C        0.40625        0.740741        0.33607930952380954        0        
C2        C        0.46875        0.740741        0.33607930952380954        0        
C2        C        0.53125        0.740741        0.33607930952380954        0        
C2        C        0.59375        0.740741        0.33607930952380954        0        
C2        C        0.65625        0.740741        0.33607930952380954        0        
C2        C        0.71875        0.740741        0.33607930952380954        0        
C2        C        0.78125        0.740741        0.33607930952380954        0        
C2        C        0.84375        0.740741        0.33607930952380954        0        
C2        C        0.9062500000000001        0.740741        0.33607930952380954        0        
C2        C        0.9687500000000001        0.740741        0.33607930952380954        0        
C3        C        0.0        0.759259        0.33607930952380954        0        
C3        C        0.0625        0.759259        0.33607930952380954        0        
C3        C        0.125        0.759259        0.33607930952380954        0        
C3        C        0.1875        0.759259        0.33607930952380954        0        
C3        C        0.25        0.759259        0.33607930952380954        0        
C3        C        0.3125        0.759259        0.33607930952380954        0        
C3        C        0.375        0.759259        0.33607930952380954        0        
C3        C        0.4375        0.759259        0.33607930952380954        0        
C3        C        0.5        0.759259        0.33607930952380954        0        
C3        C        0.5625        0.759259        0.33607930952380954        0        
C3        C        0.625        0.759259        0.33607930952380954        0        
C3        C        0.6875        0.759259        0.33607930952380954        0        
C3        C        0.75        0.759259        0.33607930952380954        0        
C3        C        0.8125        0.759259        0.33607930952380954        0        
C3        C        0.875        0.759259        0.33607930952380954        0        
C3        C        0.9375        0.759259        0.33607930952380954        0        
C4        C        0.03125        0.703703        0.33607930952380954        0        
C4        C        0.09375        0.703703        0.33607930952380954        0        
C4        C        0.15625        0.703703        0.33607930952380954        0        
C4        C        0.21875        0.703703        0.33607930952380954        0        
C4        C        0.28125        0.703703        0.33607930952380954        0        
C4        C        0.34375        0.703703        0.33607930952380954        0        
C4        C        0.40625        0.703703        0.33607930952380954        0        
C4        C        0.46875        0.703703        0.33607930952380954        0        
C4        C        0.53125        0.703703        0.33607930952380954        0        
C4        C        0.59375        0.703703        0.33607930952380954        0        
C4        C        0.65625        0.703703        0.33607930952380954        0        
C4        C        0.71875        0.703703        0.33607930952380954        0        
C4        C        0.78125        0.703703        0.33607930952380954        0        
C4        C        0.84375        0.703703        0.33607930952380954        0        
C4        C        0.9062500000000001        0.703703        0.33607930952380954        0        
C4        C        0.9687500000000001        0.703703        0.33607930952380954        0        
C_FG        C        0.0        0.796297        0.33607930952380954        0.2        
C1        C        0.0625        0.796297        0.33607930952380954        0        
C_FG        C        0.125        0.796297        0.33607930952380954        0.2        
C1        C        0.1875        0.796297        0.33607930952380954        0        
C_FG        C        0.25        0.796297        0.33607930952380954        0.2        
C1        C        0.3125        0.796297        0.33607930952380954        0        
C_FG        C        0.375        0.796297        0.33607930952380954        0.2        
C1        C        0.4375        0.796297        0.33607930952380954        0        
C_FG        C        0.5        0.796297        0.33607930952380954        0.2        
C1        C        0.5625        0.796297        0.33607930952380954        0        
C_FG        C        0.625        0.796297        0.33607930952380954        0.2        
C1        C        0.6875        0.796297        0.33607930952380954        0        
C_FG        C        0.75        0.796297        0.33607930952380954        0.2        
C1        C        0.8125        0.796297        0.33607930952380954        0        
C_FG        C        0.875        0.796297        0.33607930952380954        0.2        
C1        C        0.9375        0.796297        0.33607930952380954        0        
C2        C        0.03125        0.851852        0.33607930952380954        0        
C2        C        0.09375        0.851852        0.33607930952380954        0        
C2        C        0.15625        0.851852        0.33607930952380954        0        
C2        C        0.21875        0.851852        0.33607930952380954        0        
C2        C        0.28125        0.851852        0.33607930952380954        0        
C2        C        0.34375        0.851852        0.33607930952380954        0        
C2        C        0.40625        0.851852        0.33607930952380954        0        
C2        C        0.46875        0.851852        0.33607930952380954        0        
C2        C        0.53125        0.851852        0.33607930952380954        0        
C2        C        0.59375        0.851852        0.33607930952380954        0        
C2        C        0.65625        0.851852        0.33607930952380954        0        
C2        C        0.71875        0.851852        0.33607930952380954        0        
C2        C        0.78125        0.851852        0.33607930952380954        0        
C2        C        0.84375        0.851852        0.33607930952380954        0        
C2        C        0.9062500000000001        0.851852        0.33607930952380954        0        
C2        C        0.9687500000000001        0.851852        0.33607930952380954        0        
C3        C        0.0        0.87037        0.33607930952380954        0        
C3        C        0.0625        0.87037        0.33607930952380954        0        
C3        C        0.125        0.87037        0.33607930952380954        0        
C3        C        0.1875        0.87037        0.33607930952380954        0        
C3        C        0.25        0.87037        0.33607930952380954        0        
C3        C        0.3125        0.87037        0.33607930952380954        0        
C3        C        0.375        0.87037        0.33607930952380954        0        
C3        C        0.4375        0.87037        0.33607930952380954        0        
C3        C        0.5        0.87037        0.33607930952380954        0        
C3        C        0.5625        0.87037        0.33607930952380954        0        
C3        C        0.625        0.87037        0.33607930952380954        0        
C3        C        0.6875        0.87037        0.33607930952380954        0        
C3        C        0.75        0.87037        0.33607930952380954        0        
C3        C        0.8125        0.87037        0.33607930952380954        0        
C3        C        0.875        0.87037        0.33607930952380954        0        
C3        C        0.9375        0.87037        0.33607930952380954        0        
C4        C        0.03125        0.814814        0.33607930952380954        0        
C4        C        0.09375        0.814814        0.33607930952380954        0        
C4        C        0.15625        0.814814        0.33607930952380954        0        
C4        C        0.21875        0.814814        0.33607930952380954        0        
C4        C        0.28125        0.814814        0.33607930952380954        0        
C4        C        0.34375        0.814814        0.33607930952380954        0        
C4        C        0.40625        0.814814        0.33607930952380954        0        
C4        C        0.46875        0.814814        0.33607930952380954        0        
C4        C        0.53125        0.814814        0.33607930952380954        0        
C4        C        0.59375        0.814814        0.33607930952380954        0        
C4        C        0.65625        0.814814        0.33607930952380954        0        
C4        C        0.71875        0.814814        0.33607930952380954        0        
C4        C        0.78125        0.814814        0.33607930952380954        0        
C4        C        0.84375        0.814814        0.33607930952380954        0        
C4        C        0.9062500000000001        0.814814        0.33607930952380954        0        
C4        C        0.9687500000000001        0.814814        0.33607930952380954        0        
C_FG        C        0.0        0.907408        0.33607930952380954        0.2        
C1        C        0.0625        0.907408        0.33607930952380954        0        
C_FG        C        0.125        0.907408        0.33607930952380954        0.2        
C1        C        0.1875        0.907408        0.33607930952380954        0        
C_FG        C        0.25        0.907408        0.33607930952380954        0.2        
C1        C        0.3125        0.907408        0.33607930952380954        0        
C_FG        C        0.375        0.907408        0.33607930952380954        0.2        
C1        C        0.4375        0.907408        0.33607930952380954        0        
C_FG        C        0.5        0.907408        0.33607930952380954        0.2        
C1        C        0.5625        0.907408        0.33607930952380954        0        
C_FG        C        0.625        0.907408        0.33607930952380954        0.2        
C1        C        0.6875        0.907408        0.33607930952380954        0        
C_FG        C        0.75        0.907408        0.33607930952380954        0.2        
C1        C        0.8125        0.907408        0.33607930952380954        0        
C_FG        C        0.875        0.907408        0.33607930952380954        0.2        
C1        C        0.9375        0.907408        0.33607930952380954        0        
C2        C        0.03125        0.962963        0.33607930952380954        0        
C2        C        0.09375        0.962963        0.33607930952380954        0        
C2        C        0.15625        0.962963        0.33607930952380954        0        
C2        C        0.21875        0.962963        0.33607930952380954        0        
C2        C        0.28125        0.962963        0.33607930952380954        0        
C2        C        0.34375        0.962963        0.33607930952380954        0        
C2        C        0.40625        0.962963        0.33607930952380954        0        
C2        C        0.46875        0.962963        0.33607930952380954        0        
C2        C        0.53125        0.962963        0.33607930952380954        0        
C2        C        0.59375        0.962963        0.33607930952380954        0        
C2        C        0.65625        0.962963        0.33607930952380954        0        
C2        C        0.71875        0.962963        0.33607930952380954        0        
C2        C        0.78125        0.962963        0.33607930952380954        0        
C2        C        0.84375        0.962963        0.33607930952380954        0        
C2        C        0.9062500000000001        0.962963        0.33607930952380954        0        
C2        C        0.9687500000000001        0.962963        0.33607930952380954        0        
C3        C        0.0        0.9814809999999999        0.33607930952380954        0        
C3        C        0.0625        0.9814809999999999        0.33607930952380954        0        
C3        C        0.125        0.9814809999999999        0.33607930952380954        0        
C3        C        0.1875        0.9814809999999999        0.33607930952380954        0        
C3        C        0.25        0.9814809999999999        0.33607930952380954        0        
C3        C        0.3125        0.9814809999999999        0.33607930952380954        0        
C3        C        0.375        0.9814809999999999        0.33607930952380954        0        
C3        C        0.4375        0.9814809999999999        0.33607930952380954        0        
C3        C        0.5        0.9814809999999999        0.33607930952380954        0        
C3        C        0.5625        0.9814809999999999        0.33607930952380954        0        
C3        C        0.625        0.9814809999999999        0.33607930952380954        0        
C3        C        0.6875        0.9814809999999999        0.33607930952380954        0        
C3        C        0.75        0.9814809999999999        0.33607930952380954        0        
C3        C        0.8125        0.9814809999999999        0.33607930952380954        0        
C3        C        0.875        0.9814809999999999        0.33607930952380954        0        
C3        C        0.9375        0.9814809999999999        0.33607930952380954        0        
C4        C        0.03125        0.925925        0.33607930952380954        0        
C4        C        0.09375        0.925925        0.33607930952380954        0        
C4        C        0.15625        0.925925        0.33607930952380954        0        
C4        C        0.21875        0.925925        0.33607930952380954        0        
C4        C        0.28125        0.925925        0.33607930952380954        0        
C4        C        0.34375        0.925925        0.33607930952380954        0        
C4        C        0.40625        0.925925        0.33607930952380954        0        
C4        C        0.46875        0.925925        0.33607930952380954        0        
C4        C        0.53125        0.925925        0.33607930952380954        0        
C4        C        0.59375        0.925925        0.33607930952380954        0        
C4        C        0.65625        0.925925        0.33607930952380954        0        
C4        C        0.71875        0.925925        0.33607930952380954        0        
C4        C        0.78125        0.925925        0.33607930952380954        0        
C4        C        0.84375        0.925925        0.33607930952380954        0        
C4        C        0.9062500000000001        0.925925        0.33607930952380954        0        
C4        C        0.9687500000000001        0.925925        0.33607930952380954        0        
O_OH        O        0.0        0.018519        0.013341230158730157        -0.64        
O_OH        O        0.0        0.12963        0.013341230158730157        -0.64        
O_OH        O        0.0        0.24074099999999998        0.013341230158730157        -0.64        
O_OH        O        0.0        0.351852        0.013341230158730157        -0.64        
O_OH        O        0.0        0.46296300000000007        0.013341230158730157        -0.64        
O_OH        O        0.0        0.574075        0.013341230158730157        -0.64        
O_OH        O        0.125        0.018519        0.013341230158730157        -0.64        
O_OH        O        0.125        0.12963        0.013341230158730157        -0.64        
O_OH        O        0.125        0.24074099999999998        0.013341230158730157        -0.64        
O_OH        O        0.125        0.351852        0.013341230158730157        -0.64        
O_OH        O        0.125        0.46296300000000007        0.013341230158730157        -0.64        
O_OH        O        0.125        0.574075        0.013341230158730157        -0.64        
O_OH        O        0.25        0.018519        0.013341230158730157        -0.64        
O_OH        O        0.25        0.12963        0.013341230158730157        -0.64        
O_OH        O        0.25        0.24074099999999998        0.013341230158730157        -0.64        
O_OH        O        0.25        0.351852        0.013341230158730157        -0.64        
O_OH        O        0.25        0.46296300000000007        0.013341230158730157        -0.64        
O_OH        O        0.25        0.574075        0.013341230158730157        -0.64        
O_OH        O        0.375        0.018519        0.013341230158730157        -0.64        
O_OH        O        0.375        0.12963        0.013341230158730157        -0.64        
O_OH        O        0.375        0.24074099999999998        0.013341230158730157        -0.64        
O_OH        O        0.375        0.351852        0.013341230158730157        -0.64        
O_OH        O        0.375        0.46296300000000007        0.013341230158730157        -0.64        
O_OH        O        0.375        0.574075        0.013341230158730157        -0.64        
O_OH        O        0.5        0.018519        0.013341230158730157        -0.64        
O_OH        O        0.5        0.12963        0.013341230158730157        -0.64        
O_OH        O        0.5        0.24074099999999998        0.013341230158730157        -0.64        
O_OH        O        0.5        0.351852        0.013341230158730157        -0.64        
O_OH        O        0.5        0.46296300000000007        0.013341230158730157        -0.64        
O_OH        O        0.5        0.574075        0.013341230158730157        -0.64        
O_OH        O        0.625        0.018519        0.013341230158730157        -0.64        
O_OH        O        0.625        0.12963        0.013341230158730157        -0.64        
O_OH        O        0.625        0.24074099999999998        0.013341230158730157        -0.64        
O_OH        O        0.625        0.351852        0.013341230158730157        -0.64        
O_OH        O        0.625        0.46296300000000007        0.013341230158730157        -0.64        
O_OH        O        0.625        0.574075        0.013341230158730157        -0.64        
O_OH        O        0.75        0.018519        0.013341230158730157        -0.64        
O_OH        O        0.75        0.12963        0.013341230158730157        -0.64        
O_OH        O        0.75        0.24074099999999998        0.013341230158730157        -0.64        
O_OH        O        0.75        0.351852        0.013341230158730157        -0.64        
O_OH        O        0.75        0.46296300000000007        0.013341230158730157        -0.64        
O_OH        O        0.75        0.574075        0.013341230158730157        -0.64        
O_OH        O        0.875        0.018519        0.013341230158730157        -0.64        
O_OH        O        0.875        0.12963        0.013341230158730157        -0.64        
O_OH        O        0.875        0.24074099999999998        0.013341230158730157        -0.64        
O_OH        O        0.875        0.351852        0.013341230158730157        -0.64        
O_OH        O        0.875        0.46296300000000007        0.013341230158730157        -0.64        
O_OH        O        0.875        0.574075        0.013341230158730157        -0.64        
O_OH        O        0.0        0.685186        0.013341230158730157        -0.64        
O_OH        O        0.125        0.685186        0.013341230158730157        -0.64        
O_OH        O        0.25        0.685186        0.013341230158730157        -0.64        
O_OH        O        0.375        0.685186        0.013341230158730157        -0.64        
O_OH        O        0.5        0.685186        0.013341230158730157        -0.64        
O_OH        O        0.625        0.685186        0.013341230158730157        -0.64        
O_OH        O        0.75        0.685186        0.013341230158730157        -0.64        
O_OH        O        0.875        0.685186        0.013341230158730157        -0.64        
O_OH        O        0.0        0.796297        0.013341230158730157        -0.64        
O_OH        O        0.125        0.796297        0.013341230158730157        -0.64        
O_OH        O        0.25        0.796297        0.013341230158730157        -0.64        
O_OH        O        0.375        0.796297        0.013341230158730157        -0.64        
O_OH        O        0.5        0.796297        0.013341230158730157        -0.64        
O_OH        O        0.625        0.796297        0.013341230158730157        -0.64        
O_OH        O        0.75        0.796297        0.013341230158730157        -0.64        
O_OH        O        0.875        0.796297        0.013341230158730157        -0.64        
O_OH        O        0.0        0.907408        0.013341230158730157        -0.64        
O_OH        O        0.125        0.907408        0.013341230158730157        -0.64        
O_OH        O        0.25        0.907408        0.013341230158730157        -0.64        
O_OH        O        0.375        0.907408        0.013341230158730157        -0.64        
O_OH        O        0.5        0.907408        0.013341230158730157        -0.64        
O_OH        O        0.625        0.907408        0.013341230158730157        -0.64        
O_OH        O        0.75        0.907408        0.013341230158730157        -0.64        
O_OH        O        0.875        0.907408        0.013341230158730157        -0.64        
O_OH        O        0.0        0.018519        0.39294440476190473        -0.64        
O_OH        O        0.0        0.12963        0.39294440476190473        -0.64        
O_OH        O        0.0        0.24074099999999998        0.39294440476190473        -0.64        
O_OH        O        0.0        0.351852        0.39294440476190473        -0.64        
O_OH        O        0.0        0.46296300000000007        0.39294440476190473        -0.64        
O_OH        O        0.0        0.574075        0.39294440476190473        -0.64        
O_OH        O        0.125        0.018519        0.39294440476190473        -0.64        
O_OH        O        0.125        0.12963        0.39294440476190473        -0.64        
O_OH        O        0.125        0.24074099999999998        0.39294440476190473        -0.64        
O_OH        O        0.125        0.351852        0.39294440476190473        -0.64        
O_OH        O        0.125        0.46296300000000007        0.39294440476190473        -0.64        
O_OH        O        0.125        0.574075        0.39294440476190473        -0.64        
O_OH        O        0.25        0.018519        0.39294440476190473        -0.64        
O_OH        O        0.25        0.12963        0.39294440476190473        -0.64        
O_OH        O        0.25        0.24074099999999998        0.39294440476190473        -0.64        
O_OH        O        0.25        0.351852        0.39294440476190473        -0.64        
O_OH        O        0.25        0.46296300000000007        0.39294440476190473        -0.64        
O_OH        O        0.25        0.574075        0.39294440476190473        -0.64        
O_OH        O        0.375        0.018519        0.39294440476190473        -0.64        
O_OH        O        0.375        0.12963        0.39294440476190473        -0.64        
O_OH        O        0.375        0.24074099999999998        0.39294440476190473        -0.64        
O_OH        O        0.375        0.351852        0.39294440476190473        -0.64        
O_OH        O        0.375        0.46296300000000007        0.39294440476190473        -0.64        
O_OH        O        0.375        0.574075        0.39294440476190473        -0.64        
O_OH        O        0.5        0.018519        0.39294440476190473        -0.64        
O_OH        O        0.5        0.12963        0.39294440476190473        -0.64        
O_OH        O        0.5        0.24074099999999998        0.39294440476190473        -0.64        
O_OH        O        0.5        0.351852        0.39294440476190473        -0.64        
O_OH        O        0.5        0.46296300000000007        0.39294440476190473        -0.64        
O_OH        O        0.5        0.574075        0.39294440476190473        -0.64        
O_OH        O        0.625        0.018519        0.39294440476190473        -0.64        
O_OH        O        0.625        0.12963        0.39294440476190473        -0.64        
O_OH        O        0.625        0.24074099999999998        0.39294440476190473        -0.64        
O_OH        O        0.625        0.351852        0.39294440476190473        -0.64        
O_OH        O        0.625        0.46296300000000007        0.39294440476190473        -0.64        
O_OH        O        0.625        0.574075        0.39294440476190473        -0.64        
O_OH        O        0.75        0.018519        0.39294440476190473        -0.64        
O_OH        O        0.75        0.12963        0.39294440476190473        -0.64        
O_OH        O        0.75        0.24074099999999998        0.39294440476190473        -0.64        
O_OH        O        0.75        0.351852        0.39294440476190473        -0.64        
O_OH        O        0.75        0.46296300000000007        0.39294440476190473        -0.64        
O_OH        O        0.75        0.574075        0.39294440476190473        -0.64        
O_OH        O        0.875        0.018519        0.39294440476190473        -0.64        
O_OH        O        0.875        0.12963        0.39294440476190473        -0.64        
O_OH        O        0.875        0.24074099999999998        0.39294440476190473        -0.64        
O_OH        O        0.875        0.351852        0.39294440476190473        -0.64        
O_OH        O        0.875        0.46296300000000007        0.39294440476190473        -0.64        
O_OH        O        0.875        0.574075        0.39294440476190473        -0.64        
O_OH        O        0.0        0.685186        0.39294440476190473        -0.64        
O_OH        O        0.125        0.685186        0.39294440476190473        -0.64        
O_OH        O        0.25        0.685186        0.39294440476190473        -0.64        
O_OH        O        0.375        0.685186        0.39294440476190473        -0.64        
O_OH        O        0.5        0.685186        0.39294440476190473        -0.64        
O_OH        O        0.625        0.685186        0.39294440476190473        -0.64        
O_OH        O        0.75        0.685186        0.39294440476190473        -0.64        
O_OH        O        0.875        0.685186        0.39294440476190473        -0.64        
O_OH        O        0.0        0.796297        0.39294440476190473        -0.64        
O_OH        O        0.125        0.796297        0.39294440476190473        -0.64        
O_OH        O        0.25        0.796297        0.39294440476190473        -0.64        
O_OH        O        0.375        0.796297        0.39294440476190473        -0.64        
O_OH        O        0.5        0.796297        0.39294440476190473        -0.64        
O_OH        O        0.625        0.796297        0.39294440476190473        -0.64        
O_OH        O        0.75        0.796297        0.39294440476190473        -0.64        
O_OH        O        0.875        0.796297        0.39294440476190473        -0.64        
O_OH        O        0.0        0.907408        0.39294440476190473        -0.64        
O_OH        O        0.125        0.907408        0.39294440476190473        -0.64        
O_OH        O        0.25        0.907408        0.39294440476190473        -0.64        
O_OH        O        0.375        0.907408        0.39294440476190473        -0.64        
O_OH        O        0.5        0.907408        0.39294440476190473        -0.64        
O_OH        O        0.625        0.907408        0.39294440476190473        -0.64        
O_OH        O        0.75        0.907408        0.39294440476190473        -0.64        
O_OH        O        0.875        0.907408        0.39294440476190473        -0.64        
H_OH        H        -0.02168577575528977        0.025897095293998508        0.0        0.44        
H_OH        H        0.022510012419850813        0.1336355540923044        0.0        0.44        
H_OH        H        -0.021146452857444348        0.24961693212555766        0.0        0.44        
H_OH        H        0.013006205060276796        0.3711336620654256        0.0        0.44        
H_OH        H        0.020855616425699455        0.4725367414530422        0.0        0.44        
H_OH        H        -0.020297999279655223        0.5848379804183036        0.0        0.44        
H_OH        H        0.14418756691855744        0.031248956711797855        0.0        0.44        
H_OH        H        0.1227221778628975        0.1529665836616798        0.0        0.44        
H_OH        H        0.1255071522187111        0.26418867112659816        0.0        0.44        
H_OH        H        0.11580569671652123        0.3733222432645038        0.0        0.44        
H_OH        H        0.1262711326435196        0.4863801189012006        0.0        0.44        
H_OH        H        0.1123330298466855        0.5935932298299853        0.0        0.44        
H_OH        H        0.2450328911660706        0.041411399594868795        0.0        0.44        
H_OH        H        0.2704618415145182        0.14006089179853715        0.0        0.44        
H_OH        H        0.26140099628355823        0.26106520967109786        0.0        0.44        
H_OH        H        0.230600449337507        0.36423872404597235        0.0        0.44        
H_OH        H        0.25225492766649577        0.4863019268610345        0.0        0.44        
H_OH        H        0.2528325943964538        0.59734747648467        0.0        0.44        
H_OH        H        0.3694753450173775        0.041276348876322366        0.0        0.44        
H_OH        H        0.37672670741306935        0.1530163653055277        0.0        0.44        
H_OH        H        0.39772392415649244        0.24315899493427934        0.0        0.44        
H_OH        H        0.39717766721093634        0.35748200397380053        0.0        0.44        
H_OH        H        0.39415739005536016        0.4757407664775591        0.0        0.44        
H_OH        H        0.39783839724407605        0.5746664666838437        0.0        0.44        
H_OH        H        0.4787337892615369        0.027088076258901812        0.0        0.44        
H_OH        H        0.5164799394771876        0.14587293722415012        0.0        0.44        
H_OH        H        0.477827954314906        0.24639429105420474        0.0        0.44        
H_OH        H        0.5095044101456663        0.3731794496764989        0.0        0.44        
H_OH        H        0.4774374297601363        0.4666437369629744        0.0        0.44        
H_OH        H        0.521656230870649        0.5815439936367652        0.0        0.44        
H_OH        H        0.6214420788249759        0.041686283784687916        0.0        0.44        
H_OH        H        0.6264083504386972        0.15303884365916406        0.0        0.44        
H_OH        H        0.6274366122473927        0.2640606734473233        0.0        0.44        
H_OH        H        0.602202804781104        0.35337892128805326        0.0        0.44        
H_OH        H        0.6026245157764889        0.4676967503584079        0.0        0.44        
H_OH        H        0.6460269316987652        0.5832453081779031        0.0        0.44        
H_OH        H        0.7718191328268096        0.025470388328422806        0.0        0.44        
H_OH        H        0.7723185474956143        0.13463902444856463        0.0        0.44        
H_OH        H        0.7617160003421124        0.26087552105528095        0.0        0.44        
H_OH        H        0.7378781372972715        0.37173169859291927        0.0        0.44        
H_OH        H        0.7289642339483067        0.4721119300130654        0.0        0.44        
H_OH        H        0.745434123982433        0.5970552770011855        0.0        0.44        
H_OH        H        0.893202068688187        0.03269242160274199        0.0        0.44        
H_OH        H        0.8568489653861403        0.14387223136456437        0.0        0.44        
H_OH        H        0.8971453762650929        0.24650340782806474        0.0        0.44        
H_OH        H        0.85868301791222        0.368267409346973        0.0        0.44        
H_OH        H        0.8735630260156293        0.4863700102126918        0.0        0.44        
H_OH        H        0.8681094939429618        0.5964362477425142        0.0        0.44        
H_OH        H        -0.02209022765414662        0.6911673381187995        0.0        0.44        
H_OH        H        0.10611983486347343        0.6983914842911789        0.0        0.44        
H_OH        H        0.22729658381736811        0.6877991497279013        0.0        0.44        
H_OH        H        0.3934217461427795        0.6990570733899376        0.0        0.44        
H_OH        H        0.5223455864924109        0.6900663216836993        0.0        0.44        
H_OH        H        0.6458231562089052        0.6948339205196269        0.0        0.44        
H_OH        H        0.7380379291625238        0.7051674494897369        0.0        0.44        
H_OH        H        0.8598909714463515        0.7027778599165999        0.0        0.44        
H_OH        H        -0.022674075114267566        0.7991661044806564        0.0        0.44        
H_OH        H        0.14495726972560524        0.8077117898201855        0.0        0.44        
H_OH        H        0.2301427036307314        0.8078940870963881        0.0        0.44        
H_OH        H        0.38125510184422756        0.8188542277269022        0.0        0.44        
H_OH        H        0.5084995721462738        0.8180668551365641        0.0        0.44        
H_OH        H        0.6472847038435133        0.801462389715241        0.0        0.44        
H_OH        H        0.7276334083160488        0.80107483577545        0.0        0.44        
H_OH        H        0.886945238329942        0.8162890594365041        0.0        0.44        
H_OH        H        0.022551845902826117        0.9111573642809156        0.0        0.44        
H_OH        H        0.14689168054872442        0.914114691131166        0.0        0.44        
H_OH        H        0.27284475141598025        0.9076175319149649        0.0        0.44        
H_OH        H        0.39003934525307604        0.925062677627496        0.0        0.44        
H_OH        H        0.47796562293211925        0.9136026477144688        0.0        0.44        
H_OH        H        0.6105628045613205        0.9255847407700919        0.0        0.44        
H_OH        H        0.7556232005081569        0.9301398966680295        0.0        0.44        
H_OH        H        0.894865036202682        0.9189911087686863        0.0        0.44        
H_OH        H        0.02168634139322009        0.02589534289727831        0.40628563492063496        0.44        
H_OH        H        0.021712152923064693        0.1369258794806144        0.40628563492063496        0.44        
H_OH        H        0.021833639816811957        0.24764421562803168        0.40628563492063496        0.44        
H_OH        H        -0.019921871503712572        0.36333177298410635        0.40628563492063496        0.44        
H_OH        H        -0.020616089830135933        0.4730687251043957        0.40628563492063496        0.44        
H_OH        H        0.01911907534819255        0.5869131049297251        0.40628563492063496        0.44        
H_OH        H        0.10312392927503095        0.02527915891352577        0.40628563492063496        0.44        
H_OH        H        0.142517701924817        0.14468487632310598        0.40628563492063496        0.44        
H_OH        H        0.10934924318961588        0.25782642260398847        0.40628563492063496        0.44        
H_OH        H        0.10252329410646469        0.35605004715133        0.40628563492063496        0.44        
H_OH        H        0.1387388309690843        0.4817015151899161        0.40628563492063496        0.44        
H_OH        H        0.1440584831279913        0.587007707485581        0.40628563492063496        0.44        
H_OH        H        0.23284986806154404        0.03401348931113777        0.40628563492063496        0.44        
H_OH        H        0.27261109208672957        0.13298227329716833        0.40628563492063496        0.44        
H_OH        H        0.23310318055016538        0.25652607889656603        0.40628563492063496        0.44        
H_OH        H        0.2371345285796659        0.3712329137006244        0.40628563492063496        0.44        
H_OH        H        0.22785773383934965        0.46873799000041866        0.40628563492063496        0.44        
H_OH        H        0.25532443911823033        0.5968825909000647        0.40628563492063496        0.44        
H_OH        H        0.38140185823090195        0.041032793210822587        0.40628563492063496        0.44        
H_OH        H        0.38350165876342496        0.15139899641546872        0.40628563492063496        0.44        
H_OH        H        0.355643848517183        0.25319907300465333        0.40628563492063496        0.44        
H_OH        H        0.3664009367819191        0.37358063804815        0.40628563492063496        0.44        
H_OH        H        0.3538066373295684        0.47172022176399053        0.40628563492063496        0.44        
H_OH        H        0.35822195762533965        0.589993045430416        0.40628563492063496        0.44        
H_OH        H        0.49890493607852165        0.04194549211726097        0.40628563492063496        0.44        
H_OH        H        0.4816696538583741        0.14362810449450575        0.40628563492063496        0.44        
H_OH        H        0.5160886614077721        0.257392229981272        0.40628563492063496        0.44        
H_OH        H        0.519502502569463        0.3640671527457632        0.40628563492063496        0.44        
H_OH        H        0.5153790519232311        0.4803065053737903        0.40628563492063496        0.44        
H_OH        H        0.502252216532401        0.5974142027567577        0.40628563492063496        0.44        
H_OH        H        0.6351563297454423        0.03952737537264854        0.40628563492063496        0.44        
H_OH        H        0.647144501969645        0.13539594781207448        0.40628563492063496        0.44        
H_OH        H        0.6391274127365235        0.25917248987007674        0.40628563492063496        0.44        
H_OH        H        0.6455675787090056        0.3620613713120315        0.40628563492063496        0.44        
H_OH        H        0.6021638797714125        0.4636408213350685        0.40628563492063496        0.44        
H_OH        H        0.6474709080858388        0.5783056320882464        0.40628563492063496        0.44        
H_OH        H        0.7576545085913545        0.04061682423297946        0.40628563492063496        0.44        
H_OH        H        0.7728318564917563        0.1304452645585379        0.40628563492063496        0.44        
H_OH        H        0.7725959611745314        0.24419912665894875        0.40628563492063496        0.44        
H_OH        H        0.7703667270668323        0.3624772654936254        0.40628563492063496        0.44        
H_OH        H        0.7405303822162649        0.48430675444031807        0.40628563492063496        0.44        
H_OH        H        0.7509413523357357        0.5975085321813275        0.40628563492063496        0.44        
H_OH        H        0.8530115984441421        0.024883491674571545        0.40628563492063496        0.44        
H_OH        H        0.8907638601007977        0.14660548233685805        0.40628563492063496        0.44        
H_OH        H        0.8555910296112104        0.2531121623196356        0.40628563492063496        0.44        
H_OH        H        0.8630396517300756        0.3718345362119        0.40628563492063496        0.44        
H_OH        H        0.8839161886548664        0.4845565106423561        0.40628563492063496        0.44        
H_OH        H        0.8860349705562854        0.5946110269995969        0.40628563492063496        0.44        
H_OH        H        -0.02245958614047778        0.6894795271659455        0.40628563492063496        0.44        
H_OH        H        0.14465679504762696        0.697137661490399        0.40628563492063496        0.44        
H_OH        H        0.25542805493944787        0.7079678349767108        0.40628563492063496        0.44        
H_OH        H        0.3863781967918316        0.7055236708161433        0.40628563492063496        0.44        
H_OH        H        0.4805732538920086        0.6975277221012214        0.40628563492063496        0.44        
H_OH        H        0.6299633631891294        0.7080792557905056        0.40628563492063496        0.44        
H_OH        H        0.729655415650127        0.6958558795140496        0.40628563492063496        0.44        
H_OH        H        0.894248875002846        0.6978180339739435        0.40628563492063496        0.44        
H_OH        H        -0.01619789644080595        0.8128362407558004        0.40628563492063496        0.44        
H_OH        H        0.12744281028988108        0.8196159900349416        0.40628563492063496        0.44        
H_OH        H        0.23036209769031113        0.8082813490910137        0.40628563492063496        0.44        
H_OH        H        0.35766418911259973        0.8115721643162408        0.40628563492063496        0.44        
H_OH        H        0.5125009727962445        0.8159276993829214        0.40628563492063496        0.44        
H_OH        H        0.6022547905173449        0.798493973594374        0.40628563492063496        0.44        
H_OH        H        0.7524555542966289        0.8196145793290955        0.40628563492063496        0.44        
H_OH        H        0.8881164175502779        0.8154998181964794        0.40628563492063496        0.44        
H_OH        H        0.0124432321353877        0.9270773240340117        0.40628563492063496        0.44        
H_OH        H        0.13708503335950306        0.9273113164966243        0.40628563492063496        0.44        
H_OH        H        0.22797110776493112        0.9136231725922727        0.40628563492063496        0.44        
H_OH        H        0.3820631811100352        0.929712395060921        0.40628563492063496        0.44        
H_OH        H        0.4774003954444001        0.9108409429466024        0.40628563492063496        0.44        
H_OH        H        0.6401398944943753        0.9249718701500538        0.40628563492063496        0.44        
H_OH        H        0.7635349996848878        0.9263022039798211        0.40628563492063496        0.44        
H_OH        H        0.8841648339603783        0.9288915180402082        0.40628563492063496        0.44        
