data_graphite_ortho

_audit_creation_method RASPA-1.0
_audit_creation_date 2012-2-3
_audit_author_name 'David Dubbeldam'

_cell_length_a    31.98    
_cell_length_b    38.34    
_cell_length_c    22.2    
_cell_angle_alpha 90
_cell_angle_beta  90
_cell_angle_gamma 90
_cell_volume      27219.71      

_symmetry_cell_setting          triclinic
_symmetry_space_group_name_Hall 'P 1'
_symmetry_space_group_name_H-M  'P 1'
_symmetry_Int_Tables_number     1

_symmetry_equiv_pos_as_xyz 'x,y,z'

loop_
_atom_site_label
_atom_site_type_symbol
_atom_site_fract_x
_atom_site_fract_y
_atom_site_fract_z
_atom_site_charge
C1        C        0.0        0.018519        0.0        0        
C2        C        0.038462        0.074075        0.0        0        
C3        C        0.0        0.092592        0.0        0        
C4        C        0.038462        0.037037        0.0        0        
C1        C        0.0        0.12963        0.0        0        
C2        C        0.038462        0.185185        0.0        0        
C3        C        0.0        0.203703        0.0        0        
C4        C        0.038462        0.148148        0.0        0        
C1        C        0.0        0.240741        0.0        0        
C2        C        0.038462        0.296297        0.0        0        
C3        C        0.0        0.314815        0.0        0        
C4        C        0.038462        0.259259        0.0        0        
C1        C        0.0        0.351852        0.0        0        
C2        C        0.038462        0.407408        0.0        0        
C3        C        0.0        0.425925        0.0        0        
C4        C        0.038462        0.37037        0.0        0        
C1        C        0.0        0.462963        0.0        0        
C2        C        0.038462        0.518519        0.0        0        
C3        C        0.0        0.537037        0.0        0        
C4        C        0.038462        0.481481        0.0        0        
C1        C        0.0        0.574075        0.0        0        
C2        C        0.038462        0.62963        0.0        0        
C3        C        0.0        0.648148        0.0        0        
C4        C        0.038462        0.592592        0.0        0        
C1        C        0.076923        0.018519        0.0        0        
C2        C        0.115385        0.074075        0.0        0        
C3        C        0.076923        0.092592        0.0        0        
C4        C        0.115385        0.037037        0.0        0        
C1        C        0.076923        0.12963        0.0        0        
C2        C        0.115385        0.185185        0.0        0        
C3        C        0.076923        0.203703        0.0        0        
C4        C        0.115385        0.148148        0.0        0        
C1        C        0.076923        0.240741        0.0        0        
C2        C        0.115385        0.296297        0.0        0        
C3        C        0.076923        0.314815        0.0        0        
C4        C        0.115385        0.259259        0.0        0        
C1        C        0.076923        0.351852        0.0        0        
C2        C        0.115385        0.407408        0.0        0        
C3        C        0.076923        0.425925        0.0        0        
C4        C        0.115385        0.37037        0.0        0        
C1        C        0.076923        0.462963        0.0        0        
C2        C        0.115385        0.518519        0.0        0        
C3        C        0.076923        0.537037        0.0        0        
C4        C        0.115385        0.481481        0.0        0        
C1        C        0.076923        0.574075        0.0        0        
C2        C        0.115385        0.62963        0.0        0        
C3        C        0.076923        0.648148        0.0        0        
C4        C        0.115385        0.592592        0.0        0        
C1        C        0.153846        0.018519        0.0        0        
C2        C        0.192308        0.074075        0.0        0        
C3        C        0.153846        0.092592        0.0        0        
C4        C        0.192308        0.037037        0.0        0        
C1        C        0.153846        0.12963        0.0        0        
C2        C        0.192308        0.185185        0.0        0        
C3        C        0.153846        0.203703        0.0        0        
C4        C        0.192308        0.148148        0.0        0        
C1        C        0.153846        0.240741        0.0        0        
C2        C        0.192308        0.296297        0.0        0        
C3        C        0.153846        0.314815        0.0        0        
C4        C        0.192308        0.259259        0.0        0        
C1        C        0.153846        0.351852        0.0        0        
C2        C        0.192308        0.407408        0.0        0        
C3        C        0.153846        0.425925        0.0        0        
C4        C        0.192308        0.37037        0.0        0        
C1        C        0.153846        0.462963        0.0        0        
C2        C        0.192308        0.518519        0.0        0        
C3        C        0.153846        0.537037        0.0        0        
C4        C        0.192308        0.481481        0.0        0        
C1        C        0.153846        0.574075        0.0        0        
C2        C        0.192308        0.62963        0.0        0        
C3        C        0.153846        0.648148        0.0        0        
C4        C        0.192308        0.592592        0.0        0        
C1        C        0.230769        0.018519        0.0        0        
C2        C        0.269231        0.074075        0.0        0        
C3        C        0.230769        0.092592        0.0        0        
C4        C        0.269231        0.037037        0.0        0        
C1        C        0.230769        0.12963        0.0        0        
C2        C        0.269231        0.185185        0.0        0        
C3        C        0.230769        0.203703        0.0        0        
C4        C        0.269231        0.148148        0.0        0        
C1        C        0.230769        0.240741        0.0        0        
C2        C        0.269231        0.296297        0.0        0        
C3        C        0.230769        0.314815        0.0        0        
C4        C        0.269231        0.259259        0.0        0        
C1        C        0.230769        0.351852        0.0        0        
C2        C        0.269231        0.407408        0.0        0        
C3        C        0.230769        0.425925        0.0        0        
C4        C        0.269231        0.37037        0.0        0        
C1        C        0.230769        0.462963        0.0        0        
C2        C        0.269231        0.518519        0.0        0        
C3        C        0.230769        0.537037        0.0        0        
C4        C        0.269231        0.481481        0.0        0        
C1        C        0.230769        0.574075        0.0        0        
C2        C        0.269231        0.62963        0.0        0        
C3        C        0.230769        0.648148        0.0        0        
C4        C        0.269231        0.592592        0.0        0        
C1        C        0.307692        0.018519        0.0        0        
C2        C        0.346154        0.074075        0.0        0        
C3        C        0.307692        0.092592        0.0        0        
C4        C        0.346154        0.037037        0.0        0        
C1        C        0.307692        0.12963        0.0        0        
C2        C        0.346154        0.185185        0.0        0        
C3        C        0.307692        0.203703        0.0        0        
C4        C        0.346154        0.148148        0.0        0        
C1        C        0.307692        0.240741        0.0        0        
C2        C        0.346154        0.296297        0.0        0        
C3        C        0.307692        0.314815        0.0        0        
C4        C        0.346154        0.259259        0.0        0        
C1        C        0.307692        0.351852        0.0        0        
C2        C        0.346154        0.407408        0.0        0        
C3        C        0.307692        0.425925        0.0        0        
C4        C        0.346154        0.37037        0.0        0        
C1        C        0.307692        0.462963        0.0        0        
C2        C        0.346154        0.518519        0.0        0        
C3        C        0.307692        0.537037        0.0        0        
C4        C        0.346154        0.481481        0.0        0        
C1        C        0.307692        0.574075        0.0        0        
C2        C        0.346154        0.62963        0.0        0        
C3        C        0.307692        0.648148        0.0        0        
C4        C        0.346154        0.592592        0.0        0        
C1        C        0.384615        0.018519        0.0        0        
C2        C        0.423077        0.074075        0.0        0        
C3        C        0.384615        0.092592        0.0        0        
C4        C        0.423077        0.037037        0.0        0        
C1        C        0.384615        0.12963        0.0        0        
C2        C        0.423077        0.185185        0.0        0        
C3        C        0.384615        0.203703        0.0        0        
C4        C        0.423077        0.148148        0.0        0        
C1        C        0.384615        0.240741        0.0        0        
C2        C        0.423077        0.296297        0.0        0        
C3        C        0.384615        0.314815        0.0        0        
C4        C        0.423077        0.259259        0.0        0        
C1        C        0.384615        0.351852        0.0        0        
C2        C        0.423077        0.407408        0.0        0        
C3        C        0.384615        0.425925        0.0        0        
C4        C        0.423077        0.37037        0.0        0        
C1        C        0.384615        0.462963        0.0        0        
C2        C        0.423077        0.518519        0.0        0        
C3        C        0.384615        0.537037        0.0        0        
C4        C        0.423077        0.481481        0.0        0        
C1        C        0.384615        0.574075        0.0        0        
C2        C        0.423077        0.62963        0.0        0        
C3        C        0.384615        0.648148        0.0        0        
C4        C        0.423077        0.592592        0.0        0        
C1        C        0.461538        0.018519        0.0        0        
C2        C        0.5        0.074075        0.0        0        
C3        C        0.461538        0.092592        0.0        0        
C4        C        0.5        0.037037        0.0        0        
C1        C        0.461538        0.12963        0.0        0        
C2        C        0.5        0.185185        0.0        0        
C3        C        0.461538        0.203703        0.0        0        
C4        C        0.5        0.148148        0.0        0        
C1        C        0.461538        0.240741        0.0        0        
C2        C        0.5        0.296297        0.0        0        
C3        C        0.461538        0.314815        0.0        0        
C4        C        0.5        0.259259        0.0        0        
C1        C        0.461538        0.351852        0.0        0        
C2        C        0.5        0.407408        0.0        0        
C3        C        0.461538        0.425925        0.0        0        
C4        C        0.5        0.37037        0.0        0        
C1        C        0.461538        0.462963        0.0        0        
C2        C        0.5        0.518519        0.0        0        
C3        C        0.461538        0.537037        0.0        0        
C4        C        0.5        0.481481        0.0        0        
C1        C        0.461538        0.574075        0.0        0        
C2        C        0.5        0.62963        0.0        0        
C3        C        0.461538        0.648148        0.0        0        
C4        C        0.5        0.592592        0.0        0        
C1        C        0.538462        0.018519        0.0        0        
C2        C        0.576923        0.074075        0.0        0        
C3        C        0.538462        0.092592        0.0        0        
C4        C        0.576923        0.037037        0.0        0        
C1        C        0.538462        0.12963        0.0        0        
C2        C        0.576923        0.185185        0.0        0        
C3        C        0.538462        0.203703        0.0        0        
C4        C        0.576923        0.148148        0.0        0        
C1        C        0.538462        0.240741        0.0        0        
C2        C        0.576923        0.296297        0.0        0        
C3        C        0.538462        0.314815        0.0        0        
C4        C        0.576923        0.259259        0.0        0        
C1        C        0.538462        0.351852        0.0        0        
C2        C        0.576923        0.407408        0.0        0        
C3        C        0.538462        0.425925        0.0        0        
C4        C        0.576923        0.37037        0.0        0        
C1        C        0.538462        0.462963        0.0        0        
C2        C        0.576923        0.518519        0.0        0        
C3        C        0.538462        0.537037        0.0        0        
C4        C        0.576923        0.481481        0.0        0        
C1        C        0.538462        0.574075        0.0        0        
C2        C        0.576923        0.62963        0.0        0        
C3        C        0.538462        0.648148        0.0        0        
C4        C        0.576923        0.592592        0.0        0        
C1        C        0.615385        0.018519        0.0        0        
C2        C        0.653846        0.074075        0.0        0        
C3        C        0.615385        0.092592        0.0        0        
C4        C        0.653846        0.037037        0.0        0        
C1        C        0.615385        0.12963        0.0        0        
C2        C        0.653846        0.185185        0.0        0        
C3        C        0.615385        0.203703        0.0        0        
C4        C        0.653846        0.148148        0.0        0        
C1        C        0.615385        0.240741        0.0        0        
C2        C        0.653846        0.296297        0.0        0        
C3        C        0.615385        0.314815        0.0        0        
C4        C        0.653846        0.259259        0.0        0        
C1        C        0.615385        0.351852        0.0        0        
C2        C        0.653846        0.407408        0.0        0        
C3        C        0.615385        0.425925        0.0        0        
C4        C        0.653846        0.37037        0.0        0        
C1        C        0.615385        0.462963        0.0        0        
C2        C        0.653846        0.518519        0.0        0        
C3        C        0.615385        0.537037        0.0        0        
C4        C        0.653846        0.481481        0.0        0        
C1        C        0.615385        0.574075        0.0        0        
C2        C        0.653846        0.62963        0.0        0        
C3        C        0.615385        0.648148        0.0        0        
C4        C        0.653846        0.592592        0.0        0        
C1        C        0.692308        0.018519        0.0        0        
C2        C        0.730769        0.074075        0.0        0        
C3        C        0.692308        0.092592        0.0        0        
C4        C        0.730769        0.037037        0.0        0        
C1        C        0.692308        0.12963        0.0        0        
C2        C        0.730769        0.185185        0.0        0        
C3        C        0.692308        0.203703        0.0        0        
C4        C        0.730769        0.148148        0.0        0        
C1        C        0.692308        0.240741        0.0        0        
C2        C        0.730769        0.296297        0.0        0        
C3        C        0.692308        0.314815        0.0        0        
C4        C        0.730769        0.259259        0.0        0        
C1        C        0.692308        0.351852        0.0        0        
C2        C        0.730769        0.407408        0.0        0        
C3        C        0.692308        0.425925        0.0        0        
C4        C        0.730769        0.37037        0.0        0        
C1        C        0.692308        0.462963        0.0        0        
C2        C        0.730769        0.518519        0.0        0        
C3        C        0.692308        0.537037        0.0        0        
C4        C        0.730769        0.481481        0.0        0        
C1        C        0.692308        0.574075        0.0        0        
C2        C        0.730769        0.62963        0.0        0        
C3        C        0.692308        0.648148        0.0        0        
C4        C        0.730769        0.592592        0.0        0        
C1        C        0.769231        0.018519        0.0        0        
C2        C        0.807692        0.074075        0.0        0        
C3        C        0.769231        0.092592        0.0        0        
C4        C        0.807692        0.037037        0.0        0        
C1        C        0.769231        0.12963        0.0        0        
C2        C        0.807692        0.185185        0.0        0        
C3        C        0.769231        0.203703        0.0        0        
C4        C        0.807692        0.148148        0.0        0        
C1        C        0.769231        0.240741        0.0        0        
C2        C        0.807692        0.296297        0.0        0        
C3        C        0.769231        0.314815        0.0        0        
C4        C        0.807692        0.259259        0.0        0        
C1        C        0.769231        0.351852        0.0        0        
C2        C        0.807692        0.407408        0.0        0        
C3        C        0.769231        0.425925        0.0        0        
C4        C        0.807692        0.37037        0.0        0        
C1        C        0.769231        0.462963        0.0        0        
C2        C        0.807692        0.518519        0.0        0        
C3        C        0.769231        0.537037        0.0        0        
C4        C        0.807692        0.481481        0.0        0        
C1        C        0.769231        0.574075        0.0        0        
C2        C        0.807692        0.62963        0.0        0        
C3        C        0.769231        0.648148        0.0        0        
C4        C        0.807692        0.592592        0.0        0        
C1        C        0.846154        0.018519        0.0        0        
C2        C        0.884615        0.074075        0.0        0        
C3        C        0.846154        0.092592        0.0        0        
C4        C        0.884615        0.037037        0.0        0        
C1        C        0.846154        0.12963        0.0        0        
C2        C        0.884615        0.185185        0.0        0        
C3        C        0.846154        0.203703        0.0        0        
C4        C        0.884615        0.148148        0.0        0        
C1        C        0.846154        0.240741        0.0        0        
C2        C        0.884615        0.296297        0.0        0        
C3        C        0.846154        0.314815        0.0        0        
C4        C        0.884615        0.259259        0.0        0        
C1        C        0.846154        0.351852        0.0        0        
C2        C        0.884615        0.407408        0.0        0        
C3        C        0.846154        0.425925        0.0        0        
C4        C        0.884615        0.37037        0.0        0        
C1        C        0.846154        0.462963        0.0        0        
C2        C        0.884615        0.518519        0.0        0        
C3        C        0.846154        0.537037        0.0        0        
C4        C        0.884615        0.481481        0.0        0        
C1        C        0.846154        0.574075        0.0        0        
C2        C        0.884615        0.62963        0.0        0        
C3        C        0.846154        0.648148        0.0        0        
C4        C        0.884615        0.592592        0.0        0        
C1        C        0.923077        0.018519        0.0        0        
C2        C        0.961538        0.074075        0.0        0        
C3        C        0.923077        0.092592        0.0        0        
C4        C        0.961538        0.037037        0.0        0        
C1        C        0.923077        0.12963        0.0        0        
C2        C        0.961538        0.185185        0.0        0        
C3        C        0.923077        0.203703        0.0        0        
C4        C        0.961538        0.148148        0.0        0        
C1        C        0.923077        0.240741        0.0        0        
C2        C        0.961538        0.296297        0.0        0        
C3        C        0.923077        0.314815        0.0        0        
C4        C        0.961538        0.259259        0.0        0        
C1        C        0.923077        0.351852        0.0        0        
C2        C        0.961538        0.407408        0.0        0        
C3        C        0.923077        0.425925        0.0        0        
C4        C        0.961538        0.37037        0.0        0        
C1        C        0.923077        0.462963        0.0        0        
C2        C        0.961538        0.518519        0.0        0        
C3        C        0.923077        0.537037        0.0        0        
C4        C        0.961538        0.481481        0.0        0        
C1        C        0.923077        0.574075        0.0        0        
C2        C        0.961538        0.62963        0.0        0        
C3        C        0.923077        0.648148        0.0        0        
C4        C        0.961538        0.592592        0.0        0        
C1        C        1.0        0.018519        0.0        0        
C2        C        1.038462        0.074075        0.0        0        
C3        C        1.0        0.092592        0.0        0        
C4        C        1.038462        0.037037        0.0        0        
C1        C        1.0        0.12963        0.0        0        
C2        C        1.038462        0.185185        0.0        0        
C3        C        1.0        0.203703        0.0        0        
C4        C        1.038462        0.148148        0.0        0        
C1        C        1.0        0.240741        0.0        0        
C2        C        1.038462        0.296297        0.0        0        
C3        C        1.0        0.314815        0.0        0        
C4        C        1.038462        0.259259        0.0        0        
C1        C        1.0        0.351852        0.0        0        
C2        C        1.038462        0.407408        0.0        0        
C3        C        1.0        0.425925        0.0        0        
C4        C        1.038462        0.37037        0.0        0        
C1        C        1.0        0.462963        0.0        0        
C2        C        1.038462        0.518519        0.0        0        
C3        C        1.0        0.537037        0.0        0        
C4        C        1.038462        0.481481        0.0        0        
C1        C        1.0        0.574075        0.0        0        
C2        C        1.038462        0.62963        0.0        0        
C3        C        1.0        0.648148        0.0        0        
C4        C        1.038462        0.592592        0.0        0        
C1        C        0.0        0.685186        0.0        0        
C1        C        0.076923        0.685186        0.0        0        
C1        C        0.153846        0.685186        0.0        0        
C1        C        0.230769        0.685186        0.0        0        
C1        C        0.307692        0.685186        0.0        0        
C1        C        0.384615        0.685186        0.0        0        
C1        C        0.461538        0.685186        0.0        0        
C1        C        0.538462        0.685186        0.0        0        
C1        C        0.615385        0.685186        0.0        0        
C1        C        0.692308        0.685186        0.0        0        
C1        C        0.769231        0.685186        0.0        0        
C1        C        0.846154        0.685186        0.0        0        
C1        C        0.923077        0.685186        0.0        0        
C1        C        1.0        0.685186        0.0        0        
C2        C        0.038462        0.740741        0.0        0        
C2        C        0.115385        0.740741        0.0        0        
C2        C        0.192308        0.740741        0.0        0        
C2        C        0.269231        0.740741        0.0        0        
C2        C        0.346154        0.740741        0.0        0        
C2        C        0.423077        0.740741        0.0        0        
C2        C        0.5        0.740741        0.0        0        
C2        C        0.576923        0.740741        0.0        0        
C2        C        0.653846        0.740741        0.0        0        
C2        C        0.730769        0.740741        0.0        0        
C2        C        0.807692        0.740741        0.0        0        
C2        C        0.884615        0.740741        0.0        0        
C2        C        0.961538        0.740741        0.0        0        
C2        C        1.038462        0.740741        0.0        0        
C3        C        0.0        0.759259        0.0        0        
C3        C        0.076923        0.759259        0.0        0        
C3        C        0.153846        0.759259        0.0        0        
C3        C        0.230769        0.759259        0.0        0        
C3        C        0.307692        0.759259        0.0        0        
C3        C        0.384615        0.759259        0.0        0        
C3        C        0.461538        0.759259        0.0        0        
C3        C        0.538462        0.759259        0.0        0        
C3        C        0.615385        0.759259        0.0        0        
C3        C        0.692308        0.759259        0.0        0        
C3        C        0.769231        0.759259        0.0        0        
C3        C        0.846154        0.759259        0.0        0        
C3        C        0.923077        0.759259        0.0        0        
C3        C        1.0        0.759259        0.0        0        
C4        C        0.038462        0.703703        0.0        0        
C4        C        0.115385        0.703703        0.0        0        
C4        C        0.192308        0.703703        0.0        0        
C4        C        0.269231        0.703703        0.0        0        
C4        C        0.346154        0.703703        0.0        0        
C4        C        0.423077        0.703703        0.0        0        
C4        C        0.5        0.703703        0.0        0        
C4        C        0.576923        0.703703        0.0        0        
C4        C        0.653846        0.703703        0.0        0        
C4        C        0.730769        0.703703        0.0        0        
C4        C        0.807692        0.703703        0.0        0        
C4        C        0.884615        0.703703        0.0        0        
C4        C        0.961538        0.703703        0.0        0        
C4        C        1.038462        0.703703        0.0        0        
C1        C        0.0        0.796297        0.0        0        
C1        C        0.076923        0.796297        0.0        0        
C1        C        0.153846        0.796297        0.0        0        
C1        C        0.230769        0.796297        0.0        0        
C1        C        0.307692        0.796297        0.0        0        
C1        C        0.384615        0.796297        0.0        0        
C1        C        0.461538        0.796297        0.0        0        
C1        C        0.538462        0.796297        0.0        0        
C1        C        0.615385        0.796297        0.0        0        
C1        C        0.692308        0.796297        0.0        0        
C1        C        0.769231        0.796297        0.0        0        
C1        C        0.846154        0.796297        0.0        0        
C1        C        0.923077        0.796297        0.0        0        
C1        C        1.0        0.796297        0.0        0        
C2        C        0.038462        0.851852        0.0        0        
C2        C        0.115385        0.851852        0.0        0        
C2        C        0.192308        0.851852        0.0        0        
C2        C        0.269231        0.851852        0.0        0        
C2        C        0.346154        0.851852        0.0        0        
C2        C        0.423077        0.851852        0.0        0        
C2        C        0.5        0.851852        0.0        0        
C2        C        0.576923        0.851852        0.0        0        
C2        C        0.653846        0.851852        0.0        0        
C2        C        0.730769        0.851852        0.0        0        
C2        C        0.807692        0.851852        0.0        0        
C2        C        0.884615        0.851852        0.0        0        
C2        C        0.961538        0.851852        0.0        0        
C2        C        1.038462        0.851852        0.0        0        
C3        C        0.0        0.87037        0.0        0        
C3        C        0.076923        0.87037        0.0        0        
C3        C        0.153846        0.87037        0.0        0        
C3        C        0.230769        0.87037        0.0        0        
C3        C        0.307692        0.87037        0.0        0        
C3        C        0.384615        0.87037        0.0        0        
C3        C        0.461538        0.87037        0.0        0        
C3        C        0.538462        0.87037        0.0        0        
C3        C        0.615385        0.87037        0.0        0        
C3        C        0.692308        0.87037        0.0        0        
C3        C        0.769231        0.87037        0.0        0        
C3        C        0.846154        0.87037        0.0        0        
C3        C        0.923077        0.87037        0.0        0        
C3        C        1.0        0.87037        0.0        0        
C4        C        0.038462        0.814814        0.0        0        
C4        C        0.115385        0.814814        0.0        0        
C4        C        0.192308        0.814814        0.0        0        
C4        C        0.269231        0.814814        0.0        0        
C4        C        0.346154        0.814814        0.0        0        
C4        C        0.423077        0.814814        0.0        0        
C4        C        0.5        0.814814        0.0        0        
C4        C        0.576923        0.814814        0.0        0        
C4        C        0.653846        0.814814        0.0        0        
C4        C        0.730769        0.814814        0.0        0        
C4        C        0.807692        0.814814        0.0        0        
C4        C        0.884615        0.814814        0.0        0        
C4        C        0.961538        0.814814        0.0        0        
C4        C        1.038462        0.814814        0.0        0        
C1        C        0.0        0.907408        0.0        0        
C1        C        0.076923        0.907408        0.0        0        
C1        C        0.153846        0.907408        0.0        0        
C1        C        0.230769        0.907408        0.0        0        
C1        C        0.307692        0.907408        0.0        0        
C1        C        0.384615        0.907408        0.0        0        
C1        C        0.461538        0.907408        0.0        0        
C1        C        0.538462        0.907408        0.0        0        
C1        C        0.615385        0.907408        0.0        0        
C1        C        0.692308        0.907408        0.0        0        
C1        C        0.769231        0.907408        0.0        0        
C1        C        0.846154        0.907408        0.0        0        
C1        C        0.923077        0.907408        0.0        0        
C1        C        1.0        0.907408        0.0        0        
C2        C        0.038462        0.962963        0.0        0        
C2        C        0.115385        0.962963        0.0        0        
C2        C        0.192308        0.962963        0.0        0        
C2        C        0.269231        0.962963        0.0        0        
C2        C        0.346154        0.962963        0.0        0        
C2        C        0.423077        0.962963        0.0        0        
C2        C        0.5        0.962963        0.0        0        
C2        C        0.576923        0.962963        0.0        0        
C2        C        0.653846        0.962963        0.0        0        
C2        C        0.730769        0.962963        0.0        0        
C2        C        0.807692        0.962963        0.0        0        
C2        C        0.884615        0.962963        0.0        0        
C2        C        0.961538        0.962963        0.0        0        
C2        C        1.038462        0.962963        0.0        0        
C3        C        0.0        0.981481        0.0        0        
C3        C        0.076923        0.981481        0.0        0        
C3        C        0.153846        0.981481        0.0        0        
C3        C        0.230769        0.981481        0.0        0        
C3        C        0.307692        0.981481        0.0        0        
C3        C        0.384615        0.981481        0.0        0        
C3        C        0.461538        0.981481        0.0        0        
C3        C        0.538462        0.981481        0.0        0        
C3        C        0.615385        0.981481        0.0        0        
C3        C        0.692308        0.981481        0.0        0        
C3        C        0.769231        0.981481        0.0        0        
C3        C        0.846154        0.981481        0.0        0        
C3        C        0.923077        0.981481        0.0        0        
C3        C        1.0        0.981481        0.0        0        
C4        C        0.038462        0.925925        0.0        0        
C4        C        0.115385        0.925925        0.0        0        
C4        C        0.192308        0.925925        0.0        0        
C4        C        0.269231        0.925925        0.0        0        
C4        C        0.346154        0.925925        0.0        0        
C4        C        0.423077        0.925925        0.0        0        
C4        C        0.5        0.925925        0.0        0        
C4        C        0.576923        0.925925        0.0        0        
C4        C        0.653846        0.925925        0.0        0        
C4        C        0.730769        0.925925        0.0        0        
C4        C        0.807692        0.925925        0.0        0        
C4        C        0.884615        0.925925        0.0        0        
C4        C        0.961538        0.925925        0.0        0        
C4        C        1.038462        0.925925        0.0        0        
C1        C        0.0        0.018519        0.150901        0        
C2        C        0.038462        0.074075        0.150901        0        
C3        C        0.0        0.092592        0.150901        0        
C4        C        0.038462        0.037037        0.150901        0        
C1        C        0.0        0.12963        0.150901        0        
C2        C        0.038462        0.185185        0.150901        0        
C3        C        0.0        0.203703        0.150901        0        
C4        C        0.038462        0.148148        0.150901        0        
C1        C        0.0        0.240741        0.150901        0        
C2        C        0.038462        0.296297        0.150901        0        
C3        C        0.0        0.314815        0.150901        0        
C4        C        0.038462        0.259259        0.150901        0        
C1        C        0.0        0.351852        0.150901        0        
C2        C        0.038462        0.407408        0.150901        0        
C3        C        0.0        0.425925        0.150901        0        
C4        C        0.038462        0.37037        0.150901        0        
C1        C        0.0        0.462963        0.150901        0        
C2        C        0.038462        0.518519        0.150901        0        
C3        C        0.0        0.537037        0.150901        0        
C4        C        0.038462        0.481481        0.150901        0        
C1        C        0.0        0.574075        0.150901        0        
C2        C        0.038462        0.62963        0.150901        0        
C3        C        0.0        0.648148        0.150901        0        
C4        C        0.038462        0.592592        0.150901        0        
C1        C        0.076923        0.018519        0.150901        0        
C2        C        0.115385        0.074075        0.150901        0        
C3        C        0.076923        0.092592        0.150901        0        
C4        C        0.115385        0.037037        0.150901        0        
C1        C        0.076923        0.12963        0.150901        0        
C2        C        0.115385        0.185185        0.150901        0        
C3        C        0.076923        0.203703        0.150901        0        
C4        C        0.115385        0.148148        0.150901        0        
C1        C        0.076923        0.240741        0.150901        0        
C2        C        0.115385        0.296297        0.150901        0        
C3        C        0.076923        0.314815        0.150901        0        
C4        C        0.115385        0.259259        0.150901        0        
C1        C        0.076923        0.351852        0.150901        0        
C2        C        0.115385        0.407408        0.150901        0        
C3        C        0.076923        0.425925        0.150901        0        
C4        C        0.115385        0.37037        0.150901        0        
C1        C        0.076923        0.462963        0.150901        0        
C2        C        0.115385        0.518519        0.150901        0        
C3        C        0.076923        0.537037        0.150901        0        
C4        C        0.115385        0.481481        0.150901        0        
C1        C        0.076923        0.574075        0.150901        0        
C2        C        0.115385        0.62963        0.150901        0        
C3        C        0.076923        0.648148        0.150901        0        
C4        C        0.115385        0.592592        0.150901        0        
C1        C        0.153846        0.018519        0.150901        0        
C2        C        0.192308        0.074075        0.150901        0        
C3        C        0.153846        0.092592        0.150901        0        
C4        C        0.192308        0.037037        0.150901        0        
C1        C        0.153846        0.12963        0.150901        0        
C2        C        0.192308        0.185185        0.150901        0        
C3        C        0.153846        0.203703        0.150901        0        
C4        C        0.192308        0.148148        0.150901        0        
C1        C        0.153846        0.240741        0.150901        0        
C2        C        0.192308        0.296297        0.150901        0        
C3        C        0.153846        0.314815        0.150901        0        
C4        C        0.192308        0.259259        0.150901        0        
C1        C        0.153846        0.351852        0.150901        0        
C2        C        0.192308        0.407408        0.150901        0        
C3        C        0.153846        0.425925        0.150901        0        
C4        C        0.192308        0.37037        0.150901        0        
C1        C        0.153846        0.462963        0.150901        0        
C2        C        0.192308        0.518519        0.150901        0        
C3        C        0.153846        0.537037        0.150901        0        
C4        C        0.192308        0.481481        0.150901        0        
C1        C        0.153846        0.574075        0.150901        0        
C2        C        0.192308        0.62963        0.150901        0        
C3        C        0.153846        0.648148        0.150901        0        
C4        C        0.192308        0.592592        0.150901        0        
C1        C        0.230769        0.018519        0.150901        0        
C2        C        0.269231        0.074075        0.150901        0        
C3        C        0.230769        0.092592        0.150901        0        
C4        C        0.269231        0.037037        0.150901        0        
C1        C        0.230769        0.12963        0.150901        0        
C2        C        0.269231        0.185185        0.150901        0        
C3        C        0.230769        0.203703        0.150901        0        
C4        C        0.269231        0.148148        0.150901        0        
C1        C        0.230769        0.240741        0.150901        0        
C2        C        0.269231        0.296297        0.150901        0        
C3        C        0.230769        0.314815        0.150901        0        
C4        C        0.269231        0.259259        0.150901        0        
C1        C        0.230769        0.351852        0.150901        0        
C2        C        0.269231        0.407408        0.150901        0        
C3        C        0.230769        0.425925        0.150901        0        
C4        C        0.269231        0.37037        0.150901        0        
C1        C        0.230769        0.462963        0.150901        0        
C2        C        0.269231        0.518519        0.150901        0        
C3        C        0.230769        0.537037        0.150901        0        
C4        C        0.269231        0.481481        0.150901        0        
C1        C        0.230769        0.574075        0.150901        0        
C2        C        0.269231        0.62963        0.150901        0        
C3        C        0.230769        0.648148        0.150901        0        
C4        C        0.269231        0.592592        0.150901        0        
C1        C        0.307692        0.018519        0.150901        0        
C2        C        0.346154        0.074075        0.150901        0        
C3        C        0.307692        0.092592        0.150901        0        
C4        C        0.346154        0.037037        0.150901        0        
C1        C        0.307692        0.12963        0.150901        0        
C2        C        0.346154        0.185185        0.150901        0        
C3        C        0.307692        0.203703        0.150901        0        
C4        C        0.346154        0.148148        0.150901        0        
C1        C        0.307692        0.240741        0.150901        0        
C2        C        0.346154        0.296297        0.150901        0        
C3        C        0.307692        0.314815        0.150901        0        
C4        C        0.346154        0.259259        0.150901        0        
C1        C        0.307692        0.351852        0.150901        0        
C2        C        0.346154        0.407408        0.150901        0        
C3        C        0.307692        0.425925        0.150901        0        
C4        C        0.346154        0.37037        0.150901        0        
C1        C        0.307692        0.462963        0.150901        0        
C2        C        0.346154        0.518519        0.150901        0        
C3        C        0.307692        0.537037        0.150901        0        
C4        C        0.346154        0.481481        0.150901        0        
C1        C        0.307692        0.574075        0.150901        0        
C2        C        0.346154        0.62963        0.150901        0        
C3        C        0.307692        0.648148        0.150901        0        
C4        C        0.346154        0.592592        0.150901        0        
C1        C        0.384615        0.018519        0.150901        0        
C2        C        0.423077        0.074075        0.150901        0        
C3        C        0.384615        0.092592        0.150901        0        
C4        C        0.423077        0.037037        0.150901        0        
C1        C        0.384615        0.12963        0.150901        0        
C2        C        0.423077        0.185185        0.150901        0        
C3        C        0.384615        0.203703        0.150901        0        
C4        C        0.423077        0.148148        0.150901        0        
C1        C        0.384615        0.240741        0.150901        0        
C2        C        0.423077        0.296297        0.150901        0        
C3        C        0.384615        0.314815        0.150901        0        
C4        C        0.423077        0.259259        0.150901        0        
C1        C        0.384615        0.351852        0.150901        0        
C2        C        0.423077        0.407408        0.150901        0        
C3        C        0.384615        0.425925        0.150901        0        
C4        C        0.423077        0.37037        0.150901        0        
C1        C        0.384615        0.462963        0.150901        0        
C2        C        0.423077        0.518519        0.150901        0        
C3        C        0.384615        0.537037        0.150901        0        
C4        C        0.423077        0.481481        0.150901        0        
C1        C        0.384615        0.574075        0.150901        0        
C2        C        0.423077        0.62963        0.150901        0        
C3        C        0.384615        0.648148        0.150901        0        
C4        C        0.423077        0.592592        0.150901        0        
C1        C        0.461538        0.018519        0.150901        0        
C2        C        0.5        0.074075        0.150901        0        
C3        C        0.461538        0.092592        0.150901        0        
C4        C        0.5        0.037037        0.150901        0        
C1        C        0.461538        0.12963        0.150901        0        
C2        C        0.5        0.185185        0.150901        0        
C3        C        0.461538        0.203703        0.150901        0        
C4        C        0.5        0.148148        0.150901        0        
C1        C        0.461538        0.240741        0.150901        0        
C2        C        0.5        0.296297        0.150901        0        
C3        C        0.461538        0.314815        0.150901        0        
C4        C        0.5        0.259259        0.150901        0        
C1        C        0.461538        0.351852        0.150901        0        
C2        C        0.5        0.407408        0.150901        0        
C3        C        0.461538        0.425925        0.150901        0        
C4        C        0.5        0.37037        0.150901        0        
C1        C        0.461538        0.462963        0.150901        0        
C2        C        0.5        0.518519        0.150901        0        
C3        C        0.461538        0.537037        0.150901        0        
C4        C        0.5        0.481481        0.150901        0        
C1        C        0.461538        0.574075        0.150901        0        
C2        C        0.5        0.62963        0.150901        0        
C3        C        0.461538        0.648148        0.150901        0        
C4        C        0.5        0.592592        0.150901        0        
C1        C        0.538462        0.018519        0.150901        0        
C2        C        0.576923        0.074075        0.150901        0        
C3        C        0.538462        0.092592        0.150901        0        
C4        C        0.576923        0.037037        0.150901        0        
C1        C        0.538462        0.12963        0.150901        0        
C2        C        0.576923        0.185185        0.150901        0        
C3        C        0.538462        0.203703        0.150901        0        
C4        C        0.576923        0.148148        0.150901        0        
C1        C        0.538462        0.240741        0.150901        0        
C2        C        0.576923        0.296297        0.150901        0        
C3        C        0.538462        0.314815        0.150901        0        
C4        C        0.576923        0.259259        0.150901        0        
C1        C        0.538462        0.351852        0.150901        0        
C2        C        0.576923        0.407408        0.150901        0        
C3        C        0.538462        0.425925        0.150901        0        
C4        C        0.576923        0.37037        0.150901        0        
C1        C        0.538462        0.462963        0.150901        0        
C2        C        0.576923        0.518519        0.150901        0        
C3        C        0.538462        0.537037        0.150901        0        
C4        C        0.576923        0.481481        0.150901        0        
C1        C        0.538462        0.574075        0.150901        0        
C2        C        0.576923        0.62963        0.150901        0        
C3        C        0.538462        0.648148        0.150901        0        
C4        C        0.576923        0.592592        0.150901        0        
C1        C        0.615385        0.018519        0.150901        0        
C2        C        0.653846        0.074075        0.150901        0        
C3        C        0.615385        0.092592        0.150901        0        
C4        C        0.653846        0.037037        0.150901        0        
C1        C        0.615385        0.12963        0.150901        0        
C2        C        0.653846        0.185185        0.150901        0        
C3        C        0.615385        0.203703        0.150901        0        
C4        C        0.653846        0.148148        0.150901        0        
C1        C        0.615385        0.240741        0.150901        0        
C2        C        0.653846        0.296297        0.150901        0        
C3        C        0.615385        0.314815        0.150901        0        
C4        C        0.653846        0.259259        0.150901        0        
C1        C        0.615385        0.351852        0.150901        0        
C2        C        0.653846        0.407408        0.150901        0        
C3        C        0.615385        0.425925        0.150901        0        
C4        C        0.653846        0.37037        0.150901        0        
C1        C        0.615385        0.462963        0.150901        0        
C2        C        0.653846        0.518519        0.150901        0        
C3        C        0.615385        0.537037        0.150901        0        
C4        C        0.653846        0.481481        0.150901        0        
C1        C        0.615385        0.574075        0.150901        0        
C2        C        0.653846        0.62963        0.150901        0        
C3        C        0.615385        0.648148        0.150901        0        
C4        C        0.653846        0.592592        0.150901        0        
C1        C        0.692308        0.018519        0.150901        0        
C2        C        0.730769        0.074075        0.150901        0        
C3        C        0.692308        0.092592        0.150901        0        
C4        C        0.730769        0.037037        0.150901        0        
C1        C        0.692308        0.12963        0.150901        0        
C2        C        0.730769        0.185185        0.150901        0        
C3        C        0.692308        0.203703        0.150901        0        
C4        C        0.730769        0.148148        0.150901        0        
C1        C        0.692308        0.240741        0.150901        0        
C2        C        0.730769        0.296297        0.150901        0        
C3        C        0.692308        0.314815        0.150901        0        
C4        C        0.730769        0.259259        0.150901        0        
C1        C        0.692308        0.351852        0.150901        0        
C2        C        0.730769        0.407408        0.150901        0        
C3        C        0.692308        0.425925        0.150901        0        
C4        C        0.730769        0.37037        0.150901        0        
C1        C        0.692308        0.462963        0.150901        0        
C2        C        0.730769        0.518519        0.150901        0        
C3        C        0.692308        0.537037        0.150901        0        
C4        C        0.730769        0.481481        0.150901        0        
C1        C        0.692308        0.574075        0.150901        0        
C2        C        0.730769        0.62963        0.150901        0        
C3        C        0.692308        0.648148        0.150901        0        
C4        C        0.730769        0.592592        0.150901        0        
C1        C        0.769231        0.018519        0.150901        0        
C2        C        0.807692        0.074075        0.150901        0        
C3        C        0.769231        0.092592        0.150901        0        
C4        C        0.807692        0.037037        0.150901        0        
C1        C        0.769231        0.12963        0.150901        0        
C2        C        0.807692        0.185185        0.150901        0        
C3        C        0.769231        0.203703        0.150901        0        
C4        C        0.807692        0.148148        0.150901        0        
C1        C        0.769231        0.240741        0.150901        0        
C2        C        0.807692        0.296297        0.150901        0        
C3        C        0.769231        0.314815        0.150901        0        
C4        C        0.807692        0.259259        0.150901        0        
C1        C        0.769231        0.351852        0.150901        0        
C2        C        0.807692        0.407408        0.150901        0        
C3        C        0.769231        0.425925        0.150901        0        
C4        C        0.807692        0.37037        0.150901        0        
C1        C        0.769231        0.462963        0.150901        0        
C2        C        0.807692        0.518519        0.150901        0        
C3        C        0.769231        0.537037        0.150901        0        
C4        C        0.807692        0.481481        0.150901        0        
C1        C        0.769231        0.574075        0.150901        0        
C2        C        0.807692        0.62963        0.150901        0        
C3        C        0.769231        0.648148        0.150901        0        
C4        C        0.807692        0.592592        0.150901        0        
C1        C        0.846154        0.018519        0.150901        0        
C2        C        0.884615        0.074075        0.150901        0        
C3        C        0.846154        0.092592        0.150901        0        
C4        C        0.884615        0.037037        0.150901        0        
C1        C        0.846154        0.12963        0.150901        0        
C2        C        0.884615        0.185185        0.150901        0        
C3        C        0.846154        0.203703        0.150901        0        
C4        C        0.884615        0.148148        0.150901        0        
C1        C        0.846154        0.240741        0.150901        0        
C2        C        0.884615        0.296297        0.150901        0        
C3        C        0.846154        0.314815        0.150901        0        
C4        C        0.884615        0.259259        0.150901        0        
C1        C        0.846154        0.351852        0.150901        0        
C2        C        0.884615        0.407408        0.150901        0        
C3        C        0.846154        0.425925        0.150901        0        
C4        C        0.884615        0.37037        0.150901        0        
C1        C        0.846154        0.462963        0.150901        0        
C2        C        0.884615        0.518519        0.150901        0        
C3        C        0.846154        0.537037        0.150901        0        
C4        C        0.884615        0.481481        0.150901        0        
C1        C        0.846154        0.574075        0.150901        0        
C2        C        0.884615        0.62963        0.150901        0        
C3        C        0.846154        0.648148        0.150901        0        
C4        C        0.884615        0.592592        0.150901        0        
C1        C        0.923077        0.018519        0.150901        0        
C2        C        0.961538        0.074075        0.150901        0        
C3        C        0.923077        0.092592        0.150901        0        
C4        C        0.961538        0.037037        0.150901        0        
C1        C        0.923077        0.12963        0.150901        0        
C2        C        0.961538        0.185185        0.150901        0        
C3        C        0.923077        0.203703        0.150901        0        
C4        C        0.961538        0.148148        0.150901        0        
C1        C        0.923077        0.240741        0.150901        0        
C2        C        0.961538        0.296297        0.150901        0        
C3        C        0.923077        0.314815        0.150901        0        
C4        C        0.961538        0.259259        0.150901        0        
C1        C        0.923077        0.351852        0.150901        0        
C2        C        0.961538        0.407408        0.150901        0        
C3        C        0.923077        0.425925        0.150901        0        
C4        C        0.961538        0.37037        0.150901        0        
C1        C        0.923077        0.462963        0.150901        0        
C2        C        0.961538        0.518519        0.150901        0        
C3        C        0.923077        0.537037        0.150901        0        
C4        C        0.961538        0.481481        0.150901        0        
C1        C        0.923077        0.574075        0.150901        0        
C2        C        0.961538        0.62963        0.150901        0        
C3        C        0.923077        0.648148        0.150901        0        
C4        C        0.961538        0.592592        0.150901        0        
C1        C        1.0        0.018519        0.150901        0        
C2        C        1.038462        0.074075        0.150901        0        
C3        C        1.0        0.092592        0.150901        0        
C4        C        1.038462        0.037037        0.150901        0        
C1        C        1.0        0.12963        0.150901        0        
C2        C        1.038462        0.185185        0.150901        0        
C3        C        1.0        0.203703        0.150901        0        
C4        C        1.038462        0.148148        0.150901        0        
C1        C        1.0        0.240741        0.150901        0        
C2        C        1.038462        0.296297        0.150901        0        
C3        C        1.0        0.314815        0.150901        0        
C4        C        1.038462        0.259259        0.150901        0        
C1        C        1.0        0.351852        0.150901        0        
C2        C        1.038462        0.407408        0.150901        0        
C3        C        1.0        0.425925        0.150901        0        
C4        C        1.038462        0.37037        0.150901        0        
C1        C        1.0        0.462963        0.150901        0        
C2        C        1.038462        0.518519        0.150901        0        
C3        C        1.0        0.537037        0.150901        0        
C4        C        1.038462        0.481481        0.150901        0        
C1        C        1.0        0.574075        0.150901        0        
C2        C        1.038462        0.62963        0.150901        0        
C3        C        1.0        0.648148        0.150901        0        
C4        C        1.038462        0.592592        0.150901        0        
C1        C        0.0        0.685186        0.150901        0        
C1        C        0.076923        0.685186        0.150901        0        
C1        C        0.153846        0.685186        0.150901        0        
C1        C        0.230769        0.685186        0.150901        0        
C1        C        0.307692        0.685186        0.150901        0        
C1        C        0.384615        0.685186        0.150901        0        
C1        C        0.461538        0.685186        0.150901        0        
C1        C        0.538462        0.685186        0.150901        0        
C1        C        0.615385        0.685186        0.150901        0        
C1        C        0.692308        0.685186        0.150901        0        
C1        C        0.769231        0.685186        0.150901        0        
C1        C        0.846154        0.685186        0.150901        0        
C1        C        0.923077        0.685186        0.150901        0        
C1        C        1.0        0.685186        0.150901        0        
C2        C        0.038462        0.740741        0.150901        0        
C2        C        0.115385        0.740741        0.150901        0        
C2        C        0.192308        0.740741        0.150901        0        
C2        C        0.269231        0.740741        0.150901        0        
C2        C        0.346154        0.740741        0.150901        0        
C2        C        0.423077        0.740741        0.150901        0        
C2        C        0.5        0.740741        0.150901        0        
C2        C        0.576923        0.740741        0.150901        0        
C2        C        0.653846        0.740741        0.150901        0        
C2        C        0.730769        0.740741        0.150901        0        
C2        C        0.807692        0.740741        0.150901        0        
C2        C        0.884615        0.740741        0.150901        0        
C2        C        0.961538        0.740741        0.150901        0        
C2        C        1.038462        0.740741        0.150901        0        
C3        C        0.0        0.759259        0.150901        0        
C3        C        0.076923        0.759259        0.150901        0        
C3        C        0.153846        0.759259        0.150901        0        
C3        C        0.230769        0.759259        0.150901        0        
C3        C        0.307692        0.759259        0.150901        0        
C3        C        0.384615        0.759259        0.150901        0        
C3        C        0.461538        0.759259        0.150901        0        
C3        C        0.538462        0.759259        0.150901        0        
C3        C        0.615385        0.759259        0.150901        0        
C3        C        0.692308        0.759259        0.150901        0        
C3        C        0.769231        0.759259        0.150901        0        
C3        C        0.846154        0.759259        0.150901        0        
C3        C        0.923077        0.759259        0.150901        0        
C3        C        1.0        0.759259        0.150901        0        
C4        C        0.038462        0.703703        0.150901        0        
C4        C        0.115385        0.703703        0.150901        0        
C4        C        0.192308        0.703703        0.150901        0        
C4        C        0.269231        0.703703        0.150901        0        
C4        C        0.346154        0.703703        0.150901        0        
C4        C        0.423077        0.703703        0.150901        0        
C4        C        0.5        0.703703        0.150901        0        
C4        C        0.576923        0.703703        0.150901        0        
C4        C        0.653846        0.703703        0.150901        0        
C4        C        0.730769        0.703703        0.150901        0        
C4        C        0.807692        0.703703        0.150901        0        
C4        C        0.884615        0.703703        0.150901        0        
C4        C        0.961538        0.703703        0.150901        0        
C4        C        1.038462        0.703703        0.150901        0        
C1        C        0.0        0.796297        0.150901        0        
C1        C        0.076923        0.796297        0.150901        0        
C1        C        0.153846        0.796297        0.150901        0        
C1        C        0.230769        0.796297        0.150901        0        
C1        C        0.307692        0.796297        0.150901        0        
C1        C        0.384615        0.796297        0.150901        0        
C1        C        0.461538        0.796297        0.150901        0        
C1        C        0.538462        0.796297        0.150901        0        
C1        C        0.615385        0.796297        0.150901        0        
C1        C        0.692308        0.796297        0.150901        0        
C1        C        0.769231        0.796297        0.150901        0        
C1        C        0.846154        0.796297        0.150901        0        
C1        C        0.923077        0.796297        0.150901        0        
C1        C        1.0        0.796297        0.150901        0        
C2        C        0.038462        0.851852        0.150901        0        
C2        C        0.115385        0.851852        0.150901        0        
C2        C        0.192308        0.851852        0.150901        0        
C2        C        0.269231        0.851852        0.150901        0        
C2        C        0.346154        0.851852        0.150901        0        
C2        C        0.423077        0.851852        0.150901        0        
C2        C        0.5        0.851852        0.150901        0        
C2        C        0.576923        0.851852        0.150901        0        
C2        C        0.653846        0.851852        0.150901        0        
C2        C        0.730769        0.851852        0.150901        0        
C2        C        0.807692        0.851852        0.150901        0        
C2        C        0.884615        0.851852        0.150901        0        
C2        C        0.961538        0.851852        0.150901        0        
C2        C        1.038462        0.851852        0.150901        0        
C3        C        0.0        0.87037        0.150901        0        
C3        C        0.076923        0.87037        0.150901        0        
C3        C        0.153846        0.87037        0.150901        0        
C3        C        0.230769        0.87037        0.150901        0        
C3        C        0.307692        0.87037        0.150901        0        
C3        C        0.384615        0.87037        0.150901        0        
C3        C        0.461538        0.87037        0.150901        0        
C3        C        0.538462        0.87037        0.150901        0        
C3        C        0.615385        0.87037        0.150901        0        
C3        C        0.692308        0.87037        0.150901        0        
C3        C        0.769231        0.87037        0.150901        0        
C3        C        0.846154        0.87037        0.150901        0        
C3        C        0.923077        0.87037        0.150901        0        
C3        C        1.0        0.87037        0.150901        0        
C4        C        0.038462        0.814814        0.150901        0        
C4        C        0.115385        0.814814        0.150901        0        
C4        C        0.192308        0.814814        0.150901        0        
C4        C        0.269231        0.814814        0.150901        0        
C4        C        0.346154        0.814814        0.150901        0        
C4        C        0.423077        0.814814        0.150901        0        
C4        C        0.5        0.814814        0.150901        0        
C4        C        0.576923        0.814814        0.150901        0        
C4        C        0.653846        0.814814        0.150901        0        
C4        C        0.730769        0.814814        0.150901        0        
C4        C        0.807692        0.814814        0.150901        0        
C4        C        0.884615        0.814814        0.150901        0        
C4        C        0.961538        0.814814        0.150901        0        
C4        C        1.038462        0.814814        0.150901        0        
C1        C        0.0        0.907408        0.150901        0        
C1        C        0.076923        0.907408        0.150901        0        
C1        C        0.153846        0.907408        0.150901        0        
C1        C        0.230769        0.907408        0.150901        0        
C1        C        0.307692        0.907408        0.150901        0        
C1        C        0.384615        0.907408        0.150901        0        
C1        C        0.461538        0.907408        0.150901        0        
C1        C        0.538462        0.907408        0.150901        0        
C1        C        0.615385        0.907408        0.150901        0        
C1        C        0.692308        0.907408        0.150901        0        
C1        C        0.769231        0.907408        0.150901        0        
C1        C        0.846154        0.907408        0.150901        0        
C1        C        0.923077        0.907408        0.150901        0        
C1        C        1.0        0.907408        0.150901        0        
C2        C        0.038462        0.962963        0.150901        0        
C2        C        0.115385        0.962963        0.150901        0        
C2        C        0.192308        0.962963        0.150901        0        
C2        C        0.269231        0.962963        0.150901        0        
C2        C        0.346154        0.962963        0.150901        0        
C2        C        0.423077        0.962963        0.150901        0        
C2        C        0.5        0.962963        0.150901        0        
C2        C        0.576923        0.962963        0.150901        0        
C2        C        0.653846        0.962963        0.150901        0        
C2        C        0.730769        0.962963        0.150901        0        
C2        C        0.807692        0.962963        0.150901        0        
C2        C        0.884615        0.962963        0.150901        0        
C2        C        0.961538        0.962963        0.150901        0        
C2        C        1.038462        0.962963        0.150901        0        
C3        C        0.0        0.981481        0.150901        0        
C3        C        0.076923        0.981481        0.150901        0        
C3        C        0.153846        0.981481        0.150901        0        
C3        C        0.230769        0.981481        0.150901        0        
C3        C        0.307692        0.981481        0.150901        0        
C3        C        0.384615        0.981481        0.150901        0        
C3        C        0.461538        0.981481        0.150901        0        
C3        C        0.538462        0.981481        0.150901        0        
C3        C        0.615385        0.981481        0.150901        0        
C3        C        0.692308        0.981481        0.150901        0        
C3        C        0.769231        0.981481        0.150901        0        
C3        C        0.846154        0.981481        0.150901        0        
C3        C        0.923077        0.981481        0.150901        0        
C3        C        1.0        0.981481        0.150901        0        
C4        C        0.038462        0.925925        0.150901        0        
C4        C        0.115385        0.925925        0.150901        0        
C4        C        0.192308        0.925925        0.150901        0        
C4        C        0.269231        0.925925        0.150901        0        
C4        C        0.346154        0.925925        0.150901        0        
C4        C        0.423077        0.925925        0.150901        0        
C4        C        0.5        0.925925        0.150901        0        
C4        C        0.576923        0.925925        0.150901        0        
C4        C        0.653846        0.925925        0.150901        0        
C4        C        0.730769        0.925925        0.150901        0        
C4        C        0.807692        0.925925        0.150901        0        
C4        C        0.884615        0.925925        0.150901        0        
C4        C        0.961538        0.925925        0.150901        0        
C4        C        1.038462        0.925925        0.150901        0        
C1        C        0.0        0.018519        0.301802        0        
C2        C        0.038462        0.074075        0.301802        0        
C3        C        0.0        0.092592        0.301802        0        
C4        C        0.038462        0.037037        0.301802        0        
C1        C        0.0        0.12963        0.301802        0        
C2        C        0.038462        0.185185        0.301802        0        
C3        C        0.0        0.203703        0.301802        0        
C4        C        0.038462        0.148148        0.301802        0        
C1        C        0.0        0.240741        0.301802        0        
C2        C        0.038462        0.296297        0.301802        0        
C3        C        0.0        0.314815        0.301802        0        
C4        C        0.038462        0.259259        0.301802        0        
C1        C        0.0        0.351852        0.301802        0        
C2        C        0.038462        0.407408        0.301802        0        
C3        C        0.0        0.425925        0.301802        0        
C4        C        0.038462        0.37037        0.301802        0        
C1        C        0.0        0.462963        0.301802        0        
C2        C        0.038462        0.518519        0.301802        0        
C3        C        0.0        0.537037        0.301802        0        
C4        C        0.038462        0.481481        0.301802        0        
C1        C        0.0        0.574075        0.301802        0        
C2        C        0.038462        0.62963        0.301802        0        
C3        C        0.0        0.648148        0.301802        0        
C4        C        0.038462        0.592592        0.301802        0        
C1        C        0.076923        0.018519        0.301802        0        
C2        C        0.115385        0.074075        0.301802        0        
C3        C        0.076923        0.092592        0.301802        0        
C4        C        0.115385        0.037037        0.301802        0        
C1        C        0.076923        0.12963        0.301802        0        
C2        C        0.115385        0.185185        0.301802        0        
C3        C        0.076923        0.203703        0.301802        0        
C4        C        0.115385        0.148148        0.301802        0        
C1        C        0.076923        0.240741        0.301802        0        
C2        C        0.115385        0.296297        0.301802        0        
C3        C        0.076923        0.314815        0.301802        0        
C4        C        0.115385        0.259259        0.301802        0        
C1        C        0.076923        0.351852        0.301802        0        
C2        C        0.115385        0.407408        0.301802        0        
C3        C        0.076923        0.425925        0.301802        0        
C4        C        0.115385        0.37037        0.301802        0        
C1        C        0.076923        0.462963        0.301802        0        
C2        C        0.115385        0.518519        0.301802        0        
C3        C        0.076923        0.537037        0.301802        0        
C4        C        0.115385        0.481481        0.301802        0        
C1        C        0.076923        0.574075        0.301802        0        
C2        C        0.115385        0.62963        0.301802        0        
C3        C        0.076923        0.648148        0.301802        0        
C4        C        0.115385        0.592592        0.301802        0        
C1        C        0.153846        0.018519        0.301802        0        
C2        C        0.192308        0.074075        0.301802        0        
C3        C        0.153846        0.092592        0.301802        0        
C4        C        0.192308        0.037037        0.301802        0        
C1        C        0.153846        0.12963        0.301802        0        
C2        C        0.192308        0.185185        0.301802        0        
C3        C        0.153846        0.203703        0.301802        0        
C4        C        0.192308        0.148148        0.301802        0        
C1        C        0.153846        0.240741        0.301802        0        
C2        C        0.192308        0.296297        0.301802        0        
C3        C        0.153846        0.314815        0.301802        0        
C4        C        0.192308        0.259259        0.301802        0        
C1        C        0.153846        0.351852        0.301802        0        
C2        C        0.192308        0.407408        0.301802        0        
C3        C        0.153846        0.425925        0.301802        0        
C4        C        0.192308        0.37037        0.301802        0        
C1        C        0.153846        0.462963        0.301802        0        
C2        C        0.192308        0.518519        0.301802        0        
C3        C        0.153846        0.537037        0.301802        0        
C4        C        0.192308        0.481481        0.301802        0        
C1        C        0.153846        0.574075        0.301802        0        
C2        C        0.192308        0.62963        0.301802        0        
C3        C        0.153846        0.648148        0.301802        0        
C4        C        0.192308        0.592592        0.301802        0        
C1        C        0.230769        0.018519        0.301802        0        
C2        C        0.269231        0.074075        0.301802        0        
C3        C        0.230769        0.092592        0.301802        0        
C4        C        0.269231        0.037037        0.301802        0        
C1        C        0.230769        0.12963        0.301802        0        
C2        C        0.269231        0.185185        0.301802        0        
C3        C        0.230769        0.203703        0.301802        0        
C4        C        0.269231        0.148148        0.301802        0        
C1        C        0.230769        0.240741        0.301802        0        
C2        C        0.269231        0.296297        0.301802        0        
C3        C        0.230769        0.314815        0.301802        0        
C4        C        0.269231        0.259259        0.301802        0        
C1        C        0.230769        0.351852        0.301802        0        
C2        C        0.269231        0.407408        0.301802        0        
C3        C        0.230769        0.425925        0.301802        0        
C4        C        0.269231        0.37037        0.301802        0        
C1        C        0.230769        0.462963        0.301802        0        
C2        C        0.269231        0.518519        0.301802        0        
C3        C        0.230769        0.537037        0.301802        0        
C4        C        0.269231        0.481481        0.301802        0        
C1        C        0.230769        0.574075        0.301802        0        
C2        C        0.269231        0.62963        0.301802        0        
C3        C        0.230769        0.648148        0.301802        0        
C4        C        0.269231        0.592592        0.301802        0        
C1        C        0.307692        0.018519        0.301802        0        
C2        C        0.346154        0.074075        0.301802        0        
C3        C        0.307692        0.092592        0.301802        0        
C4        C        0.346154        0.037037        0.301802        0        
C1        C        0.307692        0.12963        0.301802        0        
C2        C        0.346154        0.185185        0.301802        0        
C3        C        0.307692        0.203703        0.301802        0        
C4        C        0.346154        0.148148        0.301802        0        
C1        C        0.307692        0.240741        0.301802        0        
C2        C        0.346154        0.296297        0.301802        0        
C3        C        0.307692        0.314815        0.301802        0        
C4        C        0.346154        0.259259        0.301802        0        
C1        C        0.307692        0.351852        0.301802        0        
C2        C        0.346154        0.407408        0.301802        0        
C3        C        0.307692        0.425925        0.301802        0        
C4        C        0.346154        0.37037        0.301802        0        
C1        C        0.307692        0.462963        0.301802        0        
C2        C        0.346154        0.518519        0.301802        0        
C3        C        0.307692        0.537037        0.301802        0        
C4        C        0.346154        0.481481        0.301802        0        
C1        C        0.307692        0.574075        0.301802        0        
C2        C        0.346154        0.62963        0.301802        0        
C3        C        0.307692        0.648148        0.301802        0        
C4        C        0.346154        0.592592        0.301802        0        
C1        C        0.384615        0.018519        0.301802        0        
C2        C        0.423077        0.074075        0.301802        0        
C3        C        0.384615        0.092592        0.301802        0        
C4        C        0.423077        0.037037        0.301802        0        
C1        C        0.384615        0.12963        0.301802        0        
C2        C        0.423077        0.185185        0.301802        0        
C3        C        0.384615        0.203703        0.301802        0        
C4        C        0.423077        0.148148        0.301802        0        
C1        C        0.384615        0.240741        0.301802        0        
C2        C        0.423077        0.296297        0.301802        0        
C3        C        0.384615        0.314815        0.301802        0        
C4        C        0.423077        0.259259        0.301802        0        
C1        C        0.384615        0.351852        0.301802        0        
C2        C        0.423077        0.407408        0.301802        0        
C3        C        0.384615        0.425925        0.301802        0        
C4        C        0.423077        0.37037        0.301802        0        
C1        C        0.384615        0.462963        0.301802        0        
C2        C        0.423077        0.518519        0.301802        0        
C3        C        0.384615        0.537037        0.301802        0        
C4        C        0.423077        0.481481        0.301802        0        
C1        C        0.384615        0.574075        0.301802        0        
C2        C        0.423077        0.62963        0.301802        0        
C3        C        0.384615        0.648148        0.301802        0        
C4        C        0.423077        0.592592        0.301802        0        
C1        C        0.461538        0.018519        0.301802        0        
C2        C        0.5        0.074075        0.301802        0        
C3        C        0.461538        0.092592        0.301802        0        
C4        C        0.5        0.037037        0.301802        0        
C1        C        0.461538        0.12963        0.301802        0        
C2        C        0.5        0.185185        0.301802        0        
C3        C        0.461538        0.203703        0.301802        0        
C4        C        0.5        0.148148        0.301802        0        
C1        C        0.461538        0.240741        0.301802        0        
C2        C        0.5        0.296297        0.301802        0        
C3        C        0.461538        0.314815        0.301802        0        
C4        C        0.5        0.259259        0.301802        0        
C1        C        0.461538        0.351852        0.301802        0        
C2        C        0.5        0.407408        0.301802        0        
C3        C        0.461538        0.425925        0.301802        0        
C4        C        0.5        0.37037        0.301802        0        
C1        C        0.461538        0.462963        0.301802        0        
C2        C        0.5        0.518519        0.301802        0        
C3        C        0.461538        0.537037        0.301802        0        
C4        C        0.5        0.481481        0.301802        0        
C1        C        0.461538        0.574075        0.301802        0        
C2        C        0.5        0.62963        0.301802        0        
C3        C        0.461538        0.648148        0.301802        0        
C4        C        0.5        0.592592        0.301802        0        
C1        C        0.538462        0.018519        0.301802        0        
C2        C        0.576923        0.074075        0.301802        0        
C3        C        0.538462        0.092592        0.301802        0        
C4        C        0.576923        0.037037        0.301802        0        
C1        C        0.538462        0.12963        0.301802        0        
C2        C        0.576923        0.185185        0.301802        0        
C3        C        0.538462        0.203703        0.301802        0        
C4        C        0.576923        0.148148        0.301802        0        
C1        C        0.538462        0.240741        0.301802        0        
C2        C        0.576923        0.296297        0.301802        0        
C3        C        0.538462        0.314815        0.301802        0        
C4        C        0.576923        0.259259        0.301802        0        
C1        C        0.538462        0.351852        0.301802        0        
C2        C        0.576923        0.407408        0.301802        0        
C3        C        0.538462        0.425925        0.301802        0        
C4        C        0.576923        0.37037        0.301802        0        
C1        C        0.538462        0.462963        0.301802        0        
C2        C        0.576923        0.518519        0.301802        0        
C3        C        0.538462        0.537037        0.301802        0        
C4        C        0.576923        0.481481        0.301802        0        
C1        C        0.538462        0.574075        0.301802        0        
C2        C        0.576923        0.62963        0.301802        0        
C3        C        0.538462        0.648148        0.301802        0        
C4        C        0.576923        0.592592        0.301802        0        
C1        C        0.615385        0.018519        0.301802        0        
C2        C        0.653846        0.074075        0.301802        0        
C3        C        0.615385        0.092592        0.301802        0        
C4        C        0.653846        0.037037        0.301802        0        
C1        C        0.615385        0.12963        0.301802        0        
C2        C        0.653846        0.185185        0.301802        0        
C3        C        0.615385        0.203703        0.301802        0        
C4        C        0.653846        0.148148        0.301802        0        
C1        C        0.615385        0.240741        0.301802        0        
C2        C        0.653846        0.296297        0.301802        0        
C3        C        0.615385        0.314815        0.301802        0        
C4        C        0.653846        0.259259        0.301802        0        
C1        C        0.615385        0.351852        0.301802        0        
C2        C        0.653846        0.407408        0.301802        0        
C3        C        0.615385        0.425925        0.301802        0        
C4        C        0.653846        0.37037        0.301802        0        
C1        C        0.615385        0.462963        0.301802        0        
C2        C        0.653846        0.518519        0.301802        0        
C3        C        0.615385        0.537037        0.301802        0        
C4        C        0.653846        0.481481        0.301802        0        
C1        C        0.615385        0.574075        0.301802        0        
C2        C        0.653846        0.62963        0.301802        0        
C3        C        0.615385        0.648148        0.301802        0        
C4        C        0.653846        0.592592        0.301802        0        
C1        C        0.692308        0.018519        0.301802        0        
C2        C        0.730769        0.074075        0.301802        0        
C3        C        0.692308        0.092592        0.301802        0        
C4        C        0.730769        0.037037        0.301802        0        
C1        C        0.692308        0.12963        0.301802        0        
C2        C        0.730769        0.185185        0.301802        0        
C3        C        0.692308        0.203703        0.301802        0        
C4        C        0.730769        0.148148        0.301802        0        
C1        C        0.692308        0.240741        0.301802        0        
C2        C        0.730769        0.296297        0.301802        0        
C3        C        0.692308        0.314815        0.301802        0        
C4        C        0.730769        0.259259        0.301802        0        
C1        C        0.692308        0.351852        0.301802        0        
C2        C        0.730769        0.407408        0.301802        0        
C3        C        0.692308        0.425925        0.301802        0        
C4        C        0.730769        0.37037        0.301802        0        
C1        C        0.692308        0.462963        0.301802        0        
C2        C        0.730769        0.518519        0.301802        0        
C3        C        0.692308        0.537037        0.301802        0        
C4        C        0.730769        0.481481        0.301802        0        
C1        C        0.692308        0.574075        0.301802        0        
C2        C        0.730769        0.62963        0.301802        0        
C3        C        0.692308        0.648148        0.301802        0        
C4        C        0.730769        0.592592        0.301802        0        
C1        C        0.769231        0.018519        0.301802        0        
C2        C        0.807692        0.074075        0.301802        0        
C3        C        0.769231        0.092592        0.301802        0        
C4        C        0.807692        0.037037        0.301802        0        
C1        C        0.769231        0.12963        0.301802        0        
C2        C        0.807692        0.185185        0.301802        0        
C3        C        0.769231        0.203703        0.301802        0        
C4        C        0.807692        0.148148        0.301802        0        
C1        C        0.769231        0.240741        0.301802        0        
C2        C        0.807692        0.296297        0.301802        0        
C3        C        0.769231        0.314815        0.301802        0        
C4        C        0.807692        0.259259        0.301802        0        
C1        C        0.769231        0.351852        0.301802        0        
C2        C        0.807692        0.407408        0.301802        0        
C3        C        0.769231        0.425925        0.301802        0        
C4        C        0.807692        0.37037        0.301802        0        
C1        C        0.769231        0.462963        0.301802        0        
C2        C        0.807692        0.518519        0.301802        0        
C3        C        0.769231        0.537037        0.301802        0        
C4        C        0.807692        0.481481        0.301802        0        
C1        C        0.769231        0.574075        0.301802        0        
C2        C        0.807692        0.62963        0.301802        0        
C3        C        0.769231        0.648148        0.301802        0        
C4        C        0.807692        0.592592        0.301802        0        
C1        C        0.846154        0.018519        0.301802        0        
C2        C        0.884615        0.074075        0.301802        0        
C3        C        0.846154        0.092592        0.301802        0        
C4        C        0.884615        0.037037        0.301802        0        
C1        C        0.846154        0.12963        0.301802        0        
C2        C        0.884615        0.185185        0.301802        0        
C3        C        0.846154        0.203703        0.301802        0        
C4        C        0.884615        0.148148        0.301802        0        
C1        C        0.846154        0.240741        0.301802        0        
C2        C        0.884615        0.296297        0.301802        0        
C3        C        0.846154        0.314815        0.301802        0        
C4        C        0.884615        0.259259        0.301802        0        
C1        C        0.846154        0.351852        0.301802        0        
C2        C        0.884615        0.407408        0.301802        0        
C3        C        0.846154        0.425925        0.301802        0        
C4        C        0.884615        0.37037        0.301802        0        
C1        C        0.846154        0.462963        0.301802        0        
C2        C        0.884615        0.518519        0.301802        0        
C3        C        0.846154        0.537037        0.301802        0        
C4        C        0.884615        0.481481        0.301802        0        
C1        C        0.846154        0.574075        0.301802        0        
C2        C        0.884615        0.62963        0.301802        0        
C3        C        0.846154        0.648148        0.301802        0        
C4        C        0.884615        0.592592        0.301802        0        
C1        C        0.923077        0.018519        0.301802        0        
C2        C        0.961538        0.074075        0.301802        0        
C3        C        0.923077        0.092592        0.301802        0        
C4        C        0.961538        0.037037        0.301802        0        
C1        C        0.923077        0.12963        0.301802        0        
C2        C        0.961538        0.185185        0.301802        0        
C3        C        0.923077        0.203703        0.301802        0        
C4        C        0.961538        0.148148        0.301802        0        
C1        C        0.923077        0.240741        0.301802        0        
C2        C        0.961538        0.296297        0.301802        0        
C3        C        0.923077        0.314815        0.301802        0        
C4        C        0.961538        0.259259        0.301802        0        
C1        C        0.923077        0.351852        0.301802        0        
C2        C        0.961538        0.407408        0.301802        0        
C3        C        0.923077        0.425925        0.301802        0        
C4        C        0.961538        0.37037        0.301802        0        
C1        C        0.923077        0.462963        0.301802        0        
C2        C        0.961538        0.518519        0.301802        0        
C3        C        0.923077        0.537037        0.301802        0        
C4        C        0.961538        0.481481        0.301802        0        
C1        C        0.923077        0.574075        0.301802        0        
C2        C        0.961538        0.62963        0.301802        0        
C3        C        0.923077        0.648148        0.301802        0        
C4        C        0.961538        0.592592        0.301802        0        
C1        C        1.0        0.018519        0.301802        0        
C2        C        1.038462        0.074075        0.301802        0        
C3        C        1.0        0.092592        0.301802        0        
C4        C        1.038462        0.037037        0.301802        0        
C1        C        1.0        0.12963        0.301802        0        
C2        C        1.038462        0.185185        0.301802        0        
C3        C        1.0        0.203703        0.301802        0        
C4        C        1.038462        0.148148        0.301802        0        
C1        C        1.0        0.240741        0.301802        0        
C2        C        1.038462        0.296297        0.301802        0        
C3        C        1.0        0.314815        0.301802        0        
C4        C        1.038462        0.259259        0.301802        0        
C1        C        1.0        0.351852        0.301802        0        
C2        C        1.038462        0.407408        0.301802        0        
C3        C        1.0        0.425925        0.301802        0        
C4        C        1.038462        0.37037        0.301802        0        
C1        C        1.0        0.462963        0.301802        0        
C2        C        1.038462        0.518519        0.301802        0        
C3        C        1.0        0.537037        0.301802        0        
C4        C        1.038462        0.481481        0.301802        0        
C1        C        1.0        0.574075        0.301802        0        
C2        C        1.038462        0.62963        0.301802        0        
C3        C        1.0        0.648148        0.301802        0        
C4        C        1.038462        0.592592        0.301802        0        
C1        C        0.0        0.685186        0.301802        0        
C1        C        0.076923        0.685186        0.301802        0        
C1        C        0.153846        0.685186        0.301802        0        
C1        C        0.230769        0.685186        0.301802        0        
C1        C        0.307692        0.685186        0.301802        0        
C1        C        0.384615        0.685186        0.301802        0        
C1        C        0.461538        0.685186        0.301802        0        
C1        C        0.538462        0.685186        0.301802        0        
C1        C        0.615385        0.685186        0.301802        0        
C1        C        0.692308        0.685186        0.301802        0        
C1        C        0.769231        0.685186        0.301802        0        
C1        C        0.846154        0.685186        0.301802        0        
C1        C        0.923077        0.685186        0.301802        0        
C1        C        1.0        0.685186        0.301802        0        
C2        C        0.038462        0.740741        0.301802        0        
C2        C        0.115385        0.740741        0.301802        0        
C2        C        0.192308        0.740741        0.301802        0        
C2        C        0.269231        0.740741        0.301802        0        
C2        C        0.346154        0.740741        0.301802        0        
C2        C        0.423077        0.740741        0.301802        0        
C2        C        0.5        0.740741        0.301802        0        
C2        C        0.576923        0.740741        0.301802        0        
C2        C        0.653846        0.740741        0.301802        0        
C2        C        0.730769        0.740741        0.301802        0        
C2        C        0.807692        0.740741        0.301802        0        
C2        C        0.884615        0.740741        0.301802        0        
C2        C        0.961538        0.740741        0.301802        0        
C2        C        1.038462        0.740741        0.301802        0        
C3        C        0.0        0.759259        0.301802        0        
C3        C        0.076923        0.759259        0.301802        0        
C3        C        0.153846        0.759259        0.301802        0        
C3        C        0.230769        0.759259        0.301802        0        
C3        C        0.307692        0.759259        0.301802        0        
C3        C        0.384615        0.759259        0.301802        0        
C3        C        0.461538        0.759259        0.301802        0        
C3        C        0.538462        0.759259        0.301802        0        
C3        C        0.615385        0.759259        0.301802        0        
C3        C        0.692308        0.759259        0.301802        0        
C3        C        0.769231        0.759259        0.301802        0        
C3        C        0.846154        0.759259        0.301802        0        
C3        C        0.923077        0.759259        0.301802        0        
C3        C        1.0        0.759259        0.301802        0        
C4        C        0.038462        0.703703        0.301802        0        
C4        C        0.115385        0.703703        0.301802        0        
C4        C        0.192308        0.703703        0.301802        0        
C4        C        0.269231        0.703703        0.301802        0        
C4        C        0.346154        0.703703        0.301802        0        
C4        C        0.423077        0.703703        0.301802        0        
C4        C        0.5        0.703703        0.301802        0        
C4        C        0.576923        0.703703        0.301802        0        
C4        C        0.653846        0.703703        0.301802        0        
C4        C        0.730769        0.703703        0.301802        0        
C4        C        0.807692        0.703703        0.301802        0        
C4        C        0.884615        0.703703        0.301802        0        
C4        C        0.961538        0.703703        0.301802        0        
C4        C        1.038462        0.703703        0.301802        0        
C1        C        0.0        0.796297        0.301802        0        
C1        C        0.076923        0.796297        0.301802        0        
C1        C        0.153846        0.796297        0.301802        0        
C1        C        0.230769        0.796297        0.301802        0        
C1        C        0.307692        0.796297        0.301802        0        
C1        C        0.384615        0.796297        0.301802        0        
C1        C        0.461538        0.796297        0.301802        0        
C1        C        0.538462        0.796297        0.301802        0        
C1        C        0.615385        0.796297        0.301802        0        
C1        C        0.692308        0.796297        0.301802        0        
C1        C        0.769231        0.796297        0.301802        0        
C1        C        0.846154        0.796297        0.301802        0        
C1        C        0.923077        0.796297        0.301802        0        
C1        C        1.0        0.796297        0.301802        0        
C2        C        0.038462        0.851852        0.301802        0        
C2        C        0.115385        0.851852        0.301802        0        
C2        C        0.192308        0.851852        0.301802        0        
C2        C        0.269231        0.851852        0.301802        0        
C2        C        0.346154        0.851852        0.301802        0        
C2        C        0.423077        0.851852        0.301802        0        
C2        C        0.5        0.851852        0.301802        0        
C2        C        0.576923        0.851852        0.301802        0        
C2        C        0.653846        0.851852        0.301802        0        
C2        C        0.730769        0.851852        0.301802        0        
C2        C        0.807692        0.851852        0.301802        0        
C2        C        0.884615        0.851852        0.301802        0        
C2        C        0.961538        0.851852        0.301802        0        
C2        C        1.038462        0.851852        0.301802        0        
C3        C        0.0        0.87037        0.301802        0        
C3        C        0.076923        0.87037        0.301802        0        
C3        C        0.153846        0.87037        0.301802        0        
C3        C        0.230769        0.87037        0.301802        0        
C3        C        0.307692        0.87037        0.301802        0        
C3        C        0.384615        0.87037        0.301802        0        
C3        C        0.461538        0.87037        0.301802        0        
C3        C        0.538462        0.87037        0.301802        0        
C3        C        0.615385        0.87037        0.301802        0        
C3        C        0.692308        0.87037        0.301802        0        
C3        C        0.769231        0.87037        0.301802        0        
C3        C        0.846154        0.87037        0.301802        0        
C3        C        0.923077        0.87037        0.301802        0        
C3        C        1.0        0.87037        0.301802        0        
C4        C        0.038462        0.814814        0.301802        0        
C4        C        0.115385        0.814814        0.301802        0        
C4        C        0.192308        0.814814        0.301802        0        
C4        C        0.269231        0.814814        0.301802        0        
C4        C        0.346154        0.814814        0.301802        0        
C4        C        0.423077        0.814814        0.301802        0        
C4        C        0.5        0.814814        0.301802        0        
C4        C        0.576923        0.814814        0.301802        0        
C4        C        0.653846        0.814814        0.301802        0        
C4        C        0.730769        0.814814        0.301802        0        
C4        C        0.807692        0.814814        0.301802        0        
C4        C        0.884615        0.814814        0.301802        0        
C4        C        0.961538        0.814814        0.301802        0        
C4        C        1.038462        0.814814        0.301802        0        
C1        C        0.0        0.907408        0.301802        0        
C1        C        0.076923        0.907408        0.301802        0        
C1        C        0.153846        0.907408        0.301802        0        
C1        C        0.230769        0.907408        0.301802        0        
C1        C        0.307692        0.907408        0.301802        0        
C1        C        0.384615        0.907408        0.301802        0        
C1        C        0.461538        0.907408        0.301802        0        
C1        C        0.538462        0.907408        0.301802        0        
C1        C        0.615385        0.907408        0.301802        0        
C1        C        0.692308        0.907408        0.301802        0        
C1        C        0.769231        0.907408        0.301802        0        
C1        C        0.846154        0.907408        0.301802        0        
C1        C        0.923077        0.907408        0.301802        0        
C1        C        1.0        0.907408        0.301802        0        
C2        C        0.038462        0.962963        0.301802        0        
C2        C        0.115385        0.962963        0.301802        0        
C2        C        0.192308        0.962963        0.301802        0        
C2        C        0.269231        0.962963        0.301802        0        
C2        C        0.346154        0.962963        0.301802        0        
C2        C        0.423077        0.962963        0.301802        0        
C2        C        0.5        0.962963        0.301802        0        
C2        C        0.576923        0.962963        0.301802        0        
C2        C        0.653846        0.962963        0.301802        0        
C2        C        0.730769        0.962963        0.301802        0        
C2        C        0.807692        0.962963        0.301802        0        
C2        C        0.884615        0.962963        0.301802        0        
C2        C        0.961538        0.962963        0.301802        0        
C2        C        1.038462        0.962963        0.301802        0        
C3        C        0.0        0.981481        0.301802        0        
C3        C        0.076923        0.981481        0.301802        0        
C3        C        0.153846        0.981481        0.301802        0        
C3        C        0.230769        0.981481        0.301802        0        
C3        C        0.307692        0.981481        0.301802        0        
C3        C        0.384615        0.981481        0.301802        0        
C3        C        0.461538        0.981481        0.301802        0        
C3        C        0.538462        0.981481        0.301802        0        
C3        C        0.615385        0.981481        0.301802        0        
C3        C        0.692308        0.981481        0.301802        0        
C3        C        0.769231        0.981481        0.301802        0        
C3        C        0.846154        0.981481        0.301802        0        
C3        C        0.923077        0.981481        0.301802        0        
C3        C        1.0        0.981481        0.301802        0        
C4        C        0.038462        0.925925        0.301802        0        
C4        C        0.115385        0.925925        0.301802        0        
C4        C        0.192308        0.925925        0.301802        0        
C4        C        0.269231        0.925925        0.301802        0        
C4        C        0.346154        0.925925        0.301802        0        
C4        C        0.423077        0.925925        0.301802        0        
C4        C        0.5        0.925925        0.301802        0        
C4        C        0.576923        0.925925        0.301802        0        
C4        C        0.653846        0.925925        0.301802        0        
C4        C        0.730769        0.925925        0.301802        0        
C4        C        0.807692        0.925925        0.301802        0        
C4        C        0.884615        0.925925        0.301802        0        
C4        C        0.961538        0.925925        0.301802        0        
C4        C        1.038462        0.925925        0.301802        0        
