data_graphite_ortho

_audit_creation_method RASPA-1.0
_audit_creation_date 2012-2-3
_audit_author_name 'David Dubbeldam'

_cell_length_a    39.36    
_cell_length_b    38.34    
_cell_length_c    15.6    
_cell_angle_alpha 90
_cell_angle_beta  90
_cell_angle_gamma 90
_cell_volume      23541.37      

_symmetry_cell_setting          triclinic
_symmetry_space_group_name_Hall 'P 1'
_symmetry_space_group_name_H-M  'P 1'
_symmetry_Int_Tables_number     1

_symmetry_equiv_pos_as_xyz 'x,y,z'

loop_
_atom_site_label
_atom_site_type_symbol
_atom_site_fract_x
_atom_site_fract_y
_atom_site_fract_z
_atom_site_charge
C_FG        C        0.0        0.018519        0.14882942307692307        0.08        
C2        C        0.03125        0.074075        0.14882942307692307        0        
C3        C        0.0        0.092592        0.14882942307692307        0        
C4        C        0.03125        0.037037        0.14882942307692307        0        
C1        C        0.0        0.12963        0.14882942307692307        0        
C2        C        0.03125        0.185185        0.14882942307692307        0        
C_FG        C        0.0        0.203703        0.14882942307692307        0.08        
C4        C        0.03125        0.148148        0.14882942307692307        0        
C1        C        0.0        0.24074099999999998        0.14882942307692307        0        
C2        C        0.03125        0.296297        0.14882942307692307        0        
C3        C        0.0        0.314815        0.14882942307692307        0        
C4        C        0.03125        0.259259        0.14882942307692307        0        
C_FG        C        0.0        0.351852        0.14882942307692307        0.08        
C2        C        0.03125        0.407408        0.14882942307692307        0        
C3        C        0.0        0.42592500000000005        0.14882942307692307        0        
C4        C        0.03125        0.37037        0.14882942307692307        0        
C1        C        0.0        0.46296300000000007        0.14882942307692307        0        
C2        C        0.03125        0.518519        0.14882942307692307        0        
C_FG        C        0.0        0.537037        0.14882942307692307        0.08        
C4        C        0.03125        0.481481        0.14882942307692307        0        
C1        C        0.0        0.574075        0.14882942307692307        0        
C2        C        0.03125        0.62963        0.14882942307692307        0        
C3        C        0.0        0.648148        0.14882942307692307        0        
C4        C        0.03125        0.592592        0.14882942307692307        0        
C1        C        0.0625        0.018519        0.14882942307692307        0        
C2        C        0.09375        0.074075        0.14882942307692307        0        
C3        C        0.0625        0.092592        0.14882942307692307        0        
C4        C        0.09375        0.037037        0.14882942307692307        0        
C1        C        0.0625        0.12963        0.14882942307692307        0        
C2        C        0.09375        0.185185        0.14882942307692307        0        
C3        C        0.0625        0.203703        0.14882942307692307        0        
C4        C        0.09375        0.148148        0.14882942307692307        0        
C1        C        0.0625        0.24074099999999998        0.14882942307692307        0        
C2        C        0.09375        0.296297        0.14882942307692307        0        
C3        C        0.0625        0.314815        0.14882942307692307        0        
C4        C        0.09375        0.259259        0.14882942307692307        0        
C1        C        0.0625        0.351852        0.14882942307692307        0        
C2        C        0.09375        0.407408        0.14882942307692307        0        
C3        C        0.0625        0.42592500000000005        0.14882942307692307        0        
C4        C        0.09375        0.37037        0.14882942307692307        0        
C1        C        0.0625        0.46296300000000007        0.14882942307692307        0        
C2        C        0.09375        0.518519        0.14882942307692307        0        
C3        C        0.0625        0.537037        0.14882942307692307        0        
C4        C        0.09375        0.481481        0.14882942307692307        0        
C1        C        0.0625        0.574075        0.14882942307692307        0        
C2        C        0.09375        0.62963        0.14882942307692307        0        
C3        C        0.0625        0.648148        0.14882942307692307        0        
C4        C        0.09375        0.592592        0.14882942307692307        0        
C1        C        0.125        0.018519        0.14882942307692307        0        
C2        C        0.15625        0.074075        0.14882942307692307        0        
C3        C        0.125        0.092592        0.14882942307692307        0        
C4        C        0.15625        0.037037        0.14882942307692307        0        
C1        C        0.125        0.12963        0.14882942307692307        0        
C2        C        0.15625        0.185185        0.14882942307692307        0        
C3        C        0.125        0.203703        0.14882942307692307        0        
C4        C        0.15625        0.148148        0.14882942307692307        0        
C1        C        0.125        0.24074099999999998        0.14882942307692307        0        
C2        C        0.15625        0.296297        0.14882942307692307        0        
C3        C        0.125        0.314815        0.14882942307692307        0        
C4        C        0.15625        0.259259        0.14882942307692307        0        
C1        C        0.125        0.351852        0.14882942307692307        0        
C2        C        0.15625        0.407408        0.14882942307692307        0        
C3        C        0.125        0.42592500000000005        0.14882942307692307        0        
C4        C        0.15625        0.37037        0.14882942307692307        0        
C1        C        0.125        0.46296300000000007        0.14882942307692307        0        
C2        C        0.15625        0.518519        0.14882942307692307        0        
C3        C        0.125        0.537037        0.14882942307692307        0        
C4        C        0.15625        0.481481        0.14882942307692307        0        
C1        C        0.125        0.574075        0.14882942307692307        0        
C2        C        0.15625        0.62963        0.14882942307692307        0        
C3        C        0.125        0.648148        0.14882942307692307        0        
C4        C        0.15625        0.592592        0.14882942307692307        0        
C1        C        0.1875        0.018519        0.14882942307692307        0        
C2        C        0.21875        0.074075        0.14882942307692307        0        
C3        C        0.1875        0.092592        0.14882942307692307        0        
C4        C        0.21875        0.037037        0.14882942307692307        0        
C1        C        0.1875        0.12963        0.14882942307692307        0        
C2        C        0.21875        0.185185        0.14882942307692307        0        
C3        C        0.1875        0.203703        0.14882942307692307        0        
C4        C        0.21875        0.148148        0.14882942307692307        0        
C1        C        0.1875        0.24074099999999998        0.14882942307692307        0        
C2        C        0.21875        0.296297        0.14882942307692307        0        
C3        C        0.1875        0.314815        0.14882942307692307        0        
C4        C        0.21875        0.259259        0.14882942307692307        0        
C1        C        0.1875        0.351852        0.14882942307692307        0        
C2        C        0.21875        0.407408        0.14882942307692307        0        
C3        C        0.1875        0.42592500000000005        0.14882942307692307        0        
C4        C        0.21875        0.37037        0.14882942307692307        0        
C1        C        0.1875        0.46296300000000007        0.14882942307692307        0        
C2        C        0.21875        0.518519        0.14882942307692307        0        
C3        C        0.1875        0.537037        0.14882942307692307        0        
C4        C        0.21875        0.481481        0.14882942307692307        0        
C1        C        0.1875        0.574075        0.14882942307692307        0        
C2        C        0.21875        0.62963        0.14882942307692307        0        
C3        C        0.1875        0.648148        0.14882942307692307        0        
C4        C        0.21875        0.592592        0.14882942307692307        0        
C_FG        C        0.25        0.018519        0.14882942307692307        0.08        
C2        C        0.28125        0.074075        0.14882942307692307        0        
C3        C        0.25        0.092592        0.14882942307692307        0        
C4        C        0.28125        0.037037        0.14882942307692307        0        
C1        C        0.25        0.12963        0.14882942307692307        0        
C2        C        0.28125        0.185185        0.14882942307692307        0        
C_FG        C        0.25        0.203703        0.14882942307692307        0.08        
C4        C        0.28125        0.148148        0.14882942307692307        0        
C1        C        0.25        0.24074099999999998        0.14882942307692307        0        
C2        C        0.28125        0.296297        0.14882942307692307        0        
C3        C        0.25        0.314815        0.14882942307692307        0        
C4        C        0.28125        0.259259        0.14882942307692307        0        
C_FG        C        0.25        0.351852        0.14882942307692307        0.08        
C2        C        0.28125        0.407408        0.14882942307692307        0        
C3        C        0.25        0.42592500000000005        0.14882942307692307        0        
C4        C        0.28125        0.37037        0.14882942307692307        0        
C1        C        0.25        0.46296300000000007        0.14882942307692307        0        
C2        C        0.28125        0.518519        0.14882942307692307        0        
C_FG        C        0.25        0.537037        0.14882942307692307        0.08        
C4        C        0.28125        0.481481        0.14882942307692307        0        
C1        C        0.25        0.574075        0.14882942307692307        0        
C2        C        0.28125        0.62963        0.14882942307692307        0        
C3        C        0.25        0.648148        0.14882942307692307        0        
C4        C        0.28125        0.592592        0.14882942307692307        0        
C1        C        0.3125        0.018519        0.14882942307692307        0        
C2        C        0.34375        0.074075        0.14882942307692307        0        
C3        C        0.3125        0.092592        0.14882942307692307        0        
C4        C        0.34375        0.037037        0.14882942307692307        0        
C1        C        0.3125        0.12963        0.14882942307692307        0        
C2        C        0.34375        0.185185        0.14882942307692307        0        
C3        C        0.3125        0.203703        0.14882942307692307        0        
C4        C        0.34375        0.148148        0.14882942307692307        0        
C1        C        0.3125        0.24074099999999998        0.14882942307692307        0        
C2        C        0.34375        0.296297        0.14882942307692307        0        
C3        C        0.3125        0.314815        0.14882942307692307        0        
C4        C        0.34375        0.259259        0.14882942307692307        0        
C1        C        0.3125        0.351852        0.14882942307692307        0        
C2        C        0.34375        0.407408        0.14882942307692307        0        
C3        C        0.3125        0.42592500000000005        0.14882942307692307        0        
C4        C        0.34375        0.37037        0.14882942307692307        0        
C1        C        0.3125        0.46296300000000007        0.14882942307692307        0        
C2        C        0.34375        0.518519        0.14882942307692307        0        
C3        C        0.3125        0.537037        0.14882942307692307        0        
C4        C        0.34375        0.481481        0.14882942307692307        0        
C1        C        0.3125        0.574075        0.14882942307692307        0        
C2        C        0.34375        0.62963        0.14882942307692307        0        
C3        C        0.3125        0.648148        0.14882942307692307        0        
C4        C        0.34375        0.592592        0.14882942307692307        0        
C1        C        0.375        0.018519        0.14882942307692307        0        
C2        C        0.40625        0.074075        0.14882942307692307        0        
C3        C        0.375        0.092592        0.14882942307692307        0        
C4        C        0.40625        0.037037        0.14882942307692307        0        
C1        C        0.375        0.12963        0.14882942307692307        0        
C2        C        0.40625        0.185185        0.14882942307692307        0        
C3        C        0.375        0.203703        0.14882942307692307        0        
C4        C        0.40625        0.148148        0.14882942307692307        0        
C1        C        0.375        0.24074099999999998        0.14882942307692307        0        
C2        C        0.40625        0.296297        0.14882942307692307        0        
C3        C        0.375        0.314815        0.14882942307692307        0        
C4        C        0.40625        0.259259        0.14882942307692307        0        
C1        C        0.375        0.351852        0.14882942307692307        0        
C2        C        0.40625        0.407408        0.14882942307692307        0        
C3        C        0.375        0.42592500000000005        0.14882942307692307        0        
C4        C        0.40625        0.37037        0.14882942307692307        0        
C1        C        0.375        0.46296300000000007        0.14882942307692307        0        
C2        C        0.40625        0.518519        0.14882942307692307        0        
C3        C        0.375        0.537037        0.14882942307692307        0        
C4        C        0.40625        0.481481        0.14882942307692307        0        
C1        C        0.375        0.574075        0.14882942307692307        0        
C2        C        0.40625        0.62963        0.14882942307692307        0        
C3        C        0.375        0.648148        0.14882942307692307        0        
C4        C        0.40625        0.592592        0.14882942307692307        0        
C1        C        0.4375        0.018519        0.14882942307692307        0        
C2        C        0.46875        0.074075        0.14882942307692307        0        
C3        C        0.4375        0.092592        0.14882942307692307        0        
C4        C        0.46875        0.037037        0.14882942307692307        0        
C1        C        0.4375        0.12963        0.14882942307692307        0        
C2        C        0.46875        0.185185        0.14882942307692307        0        
C3        C        0.4375        0.203703        0.14882942307692307        0        
C4        C        0.46875        0.148148        0.14882942307692307        0        
C1        C        0.4375        0.24074099999999998        0.14882942307692307        0        
C2        C        0.46875        0.296297        0.14882942307692307        0        
C3        C        0.4375        0.314815        0.14882942307692307        0        
C4        C        0.46875        0.259259        0.14882942307692307        0        
C1        C        0.4375        0.351852        0.14882942307692307        0        
C2        C        0.46875        0.407408        0.14882942307692307        0        
C3        C        0.4375        0.42592500000000005        0.14882942307692307        0        
C4        C        0.46875        0.37037        0.14882942307692307        0        
C1        C        0.4375        0.46296300000000007        0.14882942307692307        0        
C2        C        0.46875        0.518519        0.14882942307692307        0        
C3        C        0.4375        0.537037        0.14882942307692307        0        
C4        C        0.46875        0.481481        0.14882942307692307        0        
C1        C        0.4375        0.574075        0.14882942307692307        0        
C2        C        0.46875        0.62963        0.14882942307692307        0        
C3        C        0.4375        0.648148        0.14882942307692307        0        
C4        C        0.46875        0.592592        0.14882942307692307        0        
C_FG        C        0.5        0.018519        0.14882942307692307        0.08        
C2        C        0.53125        0.074075        0.14882942307692307        0        
C3        C        0.5        0.092592        0.14882942307692307        0        
C4        C        0.53125        0.037037        0.14882942307692307        0        
C1        C        0.5        0.12963        0.14882942307692307        0        
C2        C        0.53125        0.185185        0.14882942307692307        0        
C_FG        C        0.5        0.203703        0.14882942307692307        0.08        
C4        C        0.53125        0.148148        0.14882942307692307        0        
C1        C        0.5        0.24074099999999998        0.14882942307692307        0        
C2        C        0.53125        0.296297        0.14882942307692307        0        
C3        C        0.5        0.314815        0.14882942307692307        0        
C4        C        0.53125        0.259259        0.14882942307692307        0        
C_FG        C        0.5        0.351852        0.14882942307692307        0.08        
C2        C        0.53125        0.407408        0.14882942307692307        0        
C3        C        0.5        0.42592500000000005        0.14882942307692307        0        
C4        C        0.53125        0.37037        0.14882942307692307        0        
C1        C        0.5        0.46296300000000007        0.14882942307692307        0        
C2        C        0.53125        0.518519        0.14882942307692307        0        
C_FG        C        0.5        0.537037        0.14882942307692307        0.08        
C4        C        0.53125        0.481481        0.14882942307692307        0        
C1        C        0.5        0.574075        0.14882942307692307        0        
C2        C        0.53125        0.62963        0.14882942307692307        0        
C3        C        0.5        0.648148        0.14882942307692307        0        
C4        C        0.53125        0.592592        0.14882942307692307        0        
C1        C        0.5625        0.018519        0.14882942307692307        0        
C2        C        0.59375        0.074075        0.14882942307692307        0        
C3        C        0.5625        0.092592        0.14882942307692307        0        
C4        C        0.59375        0.037037        0.14882942307692307        0        
C1        C        0.5625        0.12963        0.14882942307692307        0        
C2        C        0.59375        0.185185        0.14882942307692307        0        
C3        C        0.5625        0.203703        0.14882942307692307        0        
C4        C        0.59375        0.148148        0.14882942307692307        0        
C1        C        0.5625        0.24074099999999998        0.14882942307692307        0        
C2        C        0.59375        0.296297        0.14882942307692307        0        
C3        C        0.5625        0.314815        0.14882942307692307        0        
C4        C        0.59375        0.259259        0.14882942307692307        0        
C1        C        0.5625        0.351852        0.14882942307692307        0        
C2        C        0.59375        0.407408        0.14882942307692307        0        
C3        C        0.5625        0.42592500000000005        0.14882942307692307        0        
C4        C        0.59375        0.37037        0.14882942307692307        0        
C1        C        0.5625        0.46296300000000007        0.14882942307692307        0        
C2        C        0.59375        0.518519        0.14882942307692307        0        
C3        C        0.5625        0.537037        0.14882942307692307        0        
C4        C        0.59375        0.481481        0.14882942307692307        0        
C1        C        0.5625        0.574075        0.14882942307692307        0        
C2        C        0.59375        0.62963        0.14882942307692307        0        
C3        C        0.5625        0.648148        0.14882942307692307        0        
C4        C        0.59375        0.592592        0.14882942307692307        0        
C1        C        0.625        0.018519        0.14882942307692307        0        
C2        C        0.65625        0.074075        0.14882942307692307        0        
C3        C        0.625        0.092592        0.14882942307692307        0        
C4        C        0.65625        0.037037        0.14882942307692307        0        
C1        C        0.625        0.12963        0.14882942307692307        0        
C2        C        0.65625        0.185185        0.14882942307692307        0        
C3        C        0.625        0.203703        0.14882942307692307        0        
C4        C        0.65625        0.148148        0.14882942307692307        0        
C1        C        0.625        0.24074099999999998        0.14882942307692307        0        
C2        C        0.65625        0.296297        0.14882942307692307        0        
C3        C        0.625        0.314815        0.14882942307692307        0        
C4        C        0.65625        0.259259        0.14882942307692307        0        
C1        C        0.625        0.351852        0.14882942307692307        0        
C2        C        0.65625        0.407408        0.14882942307692307        0        
C3        C        0.625        0.42592500000000005        0.14882942307692307        0        
C4        C        0.65625        0.37037        0.14882942307692307        0        
C1        C        0.625        0.46296300000000007        0.14882942307692307        0        
C2        C        0.65625        0.518519        0.14882942307692307        0        
C3        C        0.625        0.537037        0.14882942307692307        0        
C4        C        0.65625        0.481481        0.14882942307692307        0        
C1        C        0.625        0.574075        0.14882942307692307        0        
C2        C        0.65625        0.62963        0.14882942307692307        0        
C3        C        0.625        0.648148        0.14882942307692307        0        
C4        C        0.65625        0.592592        0.14882942307692307        0        
C1        C        0.6875        0.018519        0.14882942307692307        0        
C2        C        0.71875        0.074075        0.14882942307692307        0        
C3        C        0.6875        0.092592        0.14882942307692307        0        
C4        C        0.71875        0.037037        0.14882942307692307        0        
C1        C        0.6875        0.12963        0.14882942307692307        0        
C2        C        0.71875        0.185185        0.14882942307692307        0        
C3        C        0.6875        0.203703        0.14882942307692307        0        
C4        C        0.71875        0.148148        0.14882942307692307        0        
C1        C        0.6875        0.24074099999999998        0.14882942307692307        0        
C2        C        0.71875        0.296297        0.14882942307692307        0        
C3        C        0.6875        0.314815        0.14882942307692307        0        
C4        C        0.71875        0.259259        0.14882942307692307        0        
C1        C        0.6875        0.351852        0.14882942307692307        0        
C2        C        0.71875        0.407408        0.14882942307692307        0        
C3        C        0.6875        0.42592500000000005        0.14882942307692307        0        
C4        C        0.71875        0.37037        0.14882942307692307        0        
C1        C        0.6875        0.46296300000000007        0.14882942307692307        0        
C2        C        0.71875        0.518519        0.14882942307692307        0        
C3        C        0.6875        0.537037        0.14882942307692307        0        
C4        C        0.71875        0.481481        0.14882942307692307        0        
C1        C        0.6875        0.574075        0.14882942307692307        0        
C2        C        0.71875        0.62963        0.14882942307692307        0        
C3        C        0.6875        0.648148        0.14882942307692307        0        
C4        C        0.71875        0.592592        0.14882942307692307        0        
C_FG        C        0.75        0.018519        0.14882942307692307        0.08        
C2        C        0.78125        0.074075        0.14882942307692307        0        
C3        C        0.75        0.092592        0.14882942307692307        0        
C4        C        0.78125        0.037037        0.14882942307692307        0        
C1        C        0.75        0.12963        0.14882942307692307        0        
C2        C        0.78125        0.185185        0.14882942307692307        0        
C_FG        C        0.75        0.203703        0.14882942307692307        0.08        
C4        C        0.78125        0.148148        0.14882942307692307        0        
C1        C        0.75        0.24074099999999998        0.14882942307692307        0        
C2        C        0.78125        0.296297        0.14882942307692307        0        
C3        C        0.75        0.314815        0.14882942307692307        0        
C4        C        0.78125        0.259259        0.14882942307692307        0        
C_FG        C        0.75        0.351852        0.14882942307692307        0.08        
C2        C        0.78125        0.407408        0.14882942307692307        0        
C3        C        0.75        0.42592500000000005        0.14882942307692307        0        
C4        C        0.78125        0.37037        0.14882942307692307        0        
C1        C        0.75        0.46296300000000007        0.14882942307692307        0        
C2        C        0.78125        0.518519        0.14882942307692307        0        
C_FG        C        0.75        0.537037        0.14882942307692307        0.08        
C4        C        0.78125        0.481481        0.14882942307692307        0        
C1        C        0.75        0.574075        0.14882942307692307        0        
C2        C        0.78125        0.62963        0.14882942307692307        0        
C3        C        0.75        0.648148        0.14882942307692307        0        
C4        C        0.78125        0.592592        0.14882942307692307        0        
C1        C        0.8125        0.018519        0.14882942307692307        0        
C2        C        0.84375        0.074075        0.14882942307692307        0        
C3        C        0.8125        0.092592        0.14882942307692307        0        
C4        C        0.84375        0.037037        0.14882942307692307        0        
C1        C        0.8125        0.12963        0.14882942307692307        0        
C2        C        0.84375        0.185185        0.14882942307692307        0        
C3        C        0.8125        0.203703        0.14882942307692307        0        
C4        C        0.84375        0.148148        0.14882942307692307        0        
C1        C        0.8125        0.24074099999999998        0.14882942307692307        0        
C2        C        0.84375        0.296297        0.14882942307692307        0        
C3        C        0.8125        0.314815        0.14882942307692307        0        
C4        C        0.84375        0.259259        0.14882942307692307        0        
C1        C        0.8125        0.351852        0.14882942307692307        0        
C2        C        0.84375        0.407408        0.14882942307692307        0        
C3        C        0.8125        0.42592500000000005        0.14882942307692307        0        
C4        C        0.84375        0.37037        0.14882942307692307        0        
C1        C        0.8125        0.46296300000000007        0.14882942307692307        0        
C2        C        0.84375        0.518519        0.14882942307692307        0        
C3        C        0.8125        0.537037        0.14882942307692307        0        
C4        C        0.84375        0.481481        0.14882942307692307        0        
C1        C        0.8125        0.574075        0.14882942307692307        0        
C2        C        0.84375        0.62963        0.14882942307692307        0        
C3        C        0.8125        0.648148        0.14882942307692307        0        
C4        C        0.84375        0.592592        0.14882942307692307        0        
C1        C        0.875        0.018519        0.14882942307692307        0        
C2        C        0.9062500000000001        0.074075        0.14882942307692307        0        
C3        C        0.875        0.092592        0.14882942307692307        0        
C4        C        0.9062500000000001        0.037037        0.14882942307692307        0        
C1        C        0.875        0.12963        0.14882942307692307        0        
C2        C        0.9062500000000001        0.185185        0.14882942307692307        0        
C3        C        0.875        0.203703        0.14882942307692307        0        
C4        C        0.9062500000000001        0.148148        0.14882942307692307        0        
C1        C        0.875        0.24074099999999998        0.14882942307692307        0        
C2        C        0.9062500000000001        0.296297        0.14882942307692307        0        
C3        C        0.875        0.314815        0.14882942307692307        0        
C4        C        0.9062500000000001        0.259259        0.14882942307692307        0        
C1        C        0.875        0.351852        0.14882942307692307        0        
C2        C        0.9062500000000001        0.407408        0.14882942307692307        0        
C3        C        0.875        0.42592500000000005        0.14882942307692307        0        
C4        C        0.9062500000000001        0.37037        0.14882942307692307        0        
C1        C        0.875        0.46296300000000007        0.14882942307692307        0        
C2        C        0.9062500000000001        0.518519        0.14882942307692307        0        
C3        C        0.875        0.537037        0.14882942307692307        0        
C4        C        0.9062500000000001        0.481481        0.14882942307692307        0        
C1        C        0.875        0.574075        0.14882942307692307        0        
C2        C        0.9062500000000001        0.62963        0.14882942307692307        0        
C3        C        0.875        0.648148        0.14882942307692307        0        
C4        C        0.9062500000000001        0.592592        0.14882942307692307        0        
C1        C        0.9375        0.018519        0.14882942307692307        0        
C2        C        0.9687500000000001        0.074075        0.14882942307692307        0        
C3        C        0.9375        0.092592        0.14882942307692307        0        
C4        C        0.9687500000000001        0.037037        0.14882942307692307        0        
C1        C        0.9375        0.12963        0.14882942307692307        0        
C2        C        0.9687500000000001        0.185185        0.14882942307692307        0        
C3        C        0.9375        0.203703        0.14882942307692307        0        
C4        C        0.9687500000000001        0.148148        0.14882942307692307        0        
C1        C        0.9375        0.24074099999999998        0.14882942307692307        0        
C2        C        0.9687500000000001        0.296297        0.14882942307692307        0        
C3        C        0.9375        0.314815        0.14882942307692307        0        
C4        C        0.9687500000000001        0.259259        0.14882942307692307        0        
C1        C        0.9375        0.351852        0.14882942307692307        0        
C2        C        0.9687500000000001        0.407408        0.14882942307692307        0        
C3        C        0.9375        0.42592500000000005        0.14882942307692307        0        
C4        C        0.9687500000000001        0.37037        0.14882942307692307        0        
C1        C        0.9375        0.46296300000000007        0.14882942307692307        0        
C2        C        0.9687500000000001        0.518519        0.14882942307692307        0        
C3        C        0.9375        0.537037        0.14882942307692307        0        
C4        C        0.9687500000000001        0.481481        0.14882942307692307        0        
C1        C        0.9375        0.574075        0.14882942307692307        0        
C2        C        0.9687500000000001        0.62963        0.14882942307692307        0        
C3        C        0.9375        0.648148        0.14882942307692307        0        
C4        C        0.9687500000000001        0.592592        0.14882942307692307        0        
C_FG        C        0.0        0.685186        0.14882942307692307        0.08        
C1        C        0.0625        0.685186        0.14882942307692307        0        
C1        C        0.125        0.685186        0.14882942307692307        0        
C1        C        0.1875        0.685186        0.14882942307692307        0        
C_FG        C        0.25        0.685186        0.14882942307692307        0.08        
C1        C        0.3125        0.685186        0.14882942307692307        0        
C1        C        0.375        0.685186        0.14882942307692307        0        
C1        C        0.4375        0.685186        0.14882942307692307        0        
C_FG        C        0.5        0.685186        0.14882942307692307        0.08        
C1        C        0.5625        0.685186        0.14882942307692307        0        
C1        C        0.625        0.685186        0.14882942307692307        0        
C1        C        0.6875        0.685186        0.14882942307692307        0        
C_FG        C        0.75        0.685186        0.14882942307692307        0.08        
C1        C        0.8125        0.685186        0.14882942307692307        0        
C1        C        0.875        0.685186        0.14882942307692307        0        
C1        C        0.9375        0.685186        0.14882942307692307        0        
C2        C        0.03125        0.740741        0.14882942307692307        0        
C2        C        0.09375        0.740741        0.14882942307692307        0        
C2        C        0.15625        0.740741        0.14882942307692307        0        
C2        C        0.21875        0.740741        0.14882942307692307        0        
C2        C        0.28125        0.740741        0.14882942307692307        0        
C2        C        0.34375        0.740741        0.14882942307692307        0        
C2        C        0.40625        0.740741        0.14882942307692307        0        
C2        C        0.46875        0.740741        0.14882942307692307        0        
C2        C        0.53125        0.740741        0.14882942307692307        0        
C2        C        0.59375        0.740741        0.14882942307692307        0        
C2        C        0.65625        0.740741        0.14882942307692307        0        
C2        C        0.71875        0.740741        0.14882942307692307        0        
C2        C        0.78125        0.740741        0.14882942307692307        0        
C2        C        0.84375        0.740741        0.14882942307692307        0        
C2        C        0.9062500000000001        0.740741        0.14882942307692307        0        
C2        C        0.9687500000000001        0.740741        0.14882942307692307        0        
C3        C        0.0        0.759259        0.14882942307692307        0        
C3        C        0.0625        0.759259        0.14882942307692307        0        
C3        C        0.125        0.759259        0.14882942307692307        0        
C3        C        0.1875        0.759259        0.14882942307692307        0        
C3        C        0.25        0.759259        0.14882942307692307        0        
C3        C        0.3125        0.759259        0.14882942307692307        0        
C3        C        0.375        0.759259        0.14882942307692307        0        
C3        C        0.4375        0.759259        0.14882942307692307        0        
C3        C        0.5        0.759259        0.14882942307692307        0        
C3        C        0.5625        0.759259        0.14882942307692307        0        
C3        C        0.625        0.759259        0.14882942307692307        0        
C3        C        0.6875        0.759259        0.14882942307692307        0        
C3        C        0.75        0.759259        0.14882942307692307        0        
C3        C        0.8125        0.759259        0.14882942307692307        0        
C3        C        0.875        0.759259        0.14882942307692307        0        
C3        C        0.9375        0.759259        0.14882942307692307        0        
C4        C        0.03125        0.703703        0.14882942307692307        0        
C4        C        0.09375        0.703703        0.14882942307692307        0        
C4        C        0.15625        0.703703        0.14882942307692307        0        
C4        C        0.21875        0.703703        0.14882942307692307        0        
C4        C        0.28125        0.703703        0.14882942307692307        0        
C4        C        0.34375        0.703703        0.14882942307692307        0        
C4        C        0.40625        0.703703        0.14882942307692307        0        
C4        C        0.46875        0.703703        0.14882942307692307        0        
C4        C        0.53125        0.703703        0.14882942307692307        0        
C4        C        0.59375        0.703703        0.14882942307692307        0        
C4        C        0.65625        0.703703        0.14882942307692307        0        
C4        C        0.71875        0.703703        0.14882942307692307        0        
C4        C        0.78125        0.703703        0.14882942307692307        0        
C4        C        0.84375        0.703703        0.14882942307692307        0        
C4        C        0.9062500000000001        0.703703        0.14882942307692307        0        
C4        C        0.9687500000000001        0.703703        0.14882942307692307        0        
C1        C        0.0        0.796297        0.14882942307692307        0        
C1        C        0.0625        0.796297        0.14882942307692307        0        
C1        C        0.125        0.796297        0.14882942307692307        0        
C1        C        0.1875        0.796297        0.14882942307692307        0        
C1        C        0.25        0.796297        0.14882942307692307        0        
C1        C        0.3125        0.796297        0.14882942307692307        0        
C1        C        0.375        0.796297        0.14882942307692307        0        
C1        C        0.4375        0.796297        0.14882942307692307        0        
C1        C        0.5        0.796297        0.14882942307692307        0        
C1        C        0.5625        0.796297        0.14882942307692307        0        
C1        C        0.625        0.796297        0.14882942307692307        0        
C1        C        0.6875        0.796297        0.14882942307692307        0        
C1        C        0.75        0.796297        0.14882942307692307        0        
C1        C        0.8125        0.796297        0.14882942307692307        0        
C1        C        0.875        0.796297        0.14882942307692307        0        
C1        C        0.9375        0.796297        0.14882942307692307        0        
C2        C        0.03125        0.851852        0.14882942307692307        0        
C2        C        0.09375        0.851852        0.14882942307692307        0        
C2        C        0.15625        0.851852        0.14882942307692307        0        
C2        C        0.21875        0.851852        0.14882942307692307        0        
C2        C        0.28125        0.851852        0.14882942307692307        0        
C2        C        0.34375        0.851852        0.14882942307692307        0        
C2        C        0.40625        0.851852        0.14882942307692307        0        
C2        C        0.46875        0.851852        0.14882942307692307        0        
C2        C        0.53125        0.851852        0.14882942307692307        0        
C2        C        0.59375        0.851852        0.14882942307692307        0        
C2        C        0.65625        0.851852        0.14882942307692307        0        
C2        C        0.71875        0.851852        0.14882942307692307        0        
C2        C        0.78125        0.851852        0.14882942307692307        0        
C2        C        0.84375        0.851852        0.14882942307692307        0        
C2        C        0.9062500000000001        0.851852        0.14882942307692307        0        
C2        C        0.9687500000000001        0.851852        0.14882942307692307        0        
C_FG        C        0.0        0.87037        0.14882942307692307        0.08        
C3        C        0.0625        0.87037        0.14882942307692307        0        
C3        C        0.125        0.87037        0.14882942307692307        0        
C3        C        0.1875        0.87037        0.14882942307692307        0        
C_FG        C        0.25        0.87037        0.14882942307692307        0.08        
C3        C        0.3125        0.87037        0.14882942307692307        0        
C3        C        0.375        0.87037        0.14882942307692307        0        
C3        C        0.4375        0.87037        0.14882942307692307        0        
C_FG        C        0.5        0.87037        0.14882942307692307        0.08        
C3        C        0.5625        0.87037        0.14882942307692307        0        
C3        C        0.625        0.87037        0.14882942307692307        0        
C3        C        0.6875        0.87037        0.14882942307692307        0        
C_FG        C        0.75        0.87037        0.14882942307692307        0.08        
C3        C        0.8125        0.87037        0.14882942307692307        0        
C3        C        0.875        0.87037        0.14882942307692307        0        
C3        C        0.9375        0.87037        0.14882942307692307        0        
C4        C        0.03125        0.814814        0.14882942307692307        0        
C4        C        0.09375        0.814814        0.14882942307692307        0        
C4        C        0.15625        0.814814        0.14882942307692307        0        
C4        C        0.21875        0.814814        0.14882942307692307        0        
C4        C        0.28125        0.814814        0.14882942307692307        0        
C4        C        0.34375        0.814814        0.14882942307692307        0        
C4        C        0.40625        0.814814        0.14882942307692307        0        
C4        C        0.46875        0.814814        0.14882942307692307        0        
C4        C        0.53125        0.814814        0.14882942307692307        0        
C4        C        0.59375        0.814814        0.14882942307692307        0        
C4        C        0.65625        0.814814        0.14882942307692307        0        
C4        C        0.71875        0.814814        0.14882942307692307        0        
C4        C        0.78125        0.814814        0.14882942307692307        0        
C4        C        0.84375        0.814814        0.14882942307692307        0        
C4        C        0.9062500000000001        0.814814        0.14882942307692307        0        
C4        C        0.9687500000000001        0.814814        0.14882942307692307        0        
C1        C        0.0        0.907408        0.14882942307692307        0        
C1        C        0.0625        0.907408        0.14882942307692307        0        
C1        C        0.125        0.907408        0.14882942307692307        0        
C1        C        0.1875        0.907408        0.14882942307692307        0        
C1        C        0.25        0.907408        0.14882942307692307        0        
C1        C        0.3125        0.907408        0.14882942307692307        0        
C1        C        0.375        0.907408        0.14882942307692307        0        
C1        C        0.4375        0.907408        0.14882942307692307        0        
C1        C        0.5        0.907408        0.14882942307692307        0        
C1        C        0.5625        0.907408        0.14882942307692307        0        
C1        C        0.625        0.907408        0.14882942307692307        0        
C1        C        0.6875        0.907408        0.14882942307692307        0        
C1        C        0.75        0.907408        0.14882942307692307        0        
C1        C        0.8125        0.907408        0.14882942307692307        0        
C1        C        0.875        0.907408        0.14882942307692307        0        
C1        C        0.9375        0.907408        0.14882942307692307        0        
C2        C        0.03125        0.962963        0.14882942307692307        0        
C2        C        0.09375        0.962963        0.14882942307692307        0        
C2        C        0.15625        0.962963        0.14882942307692307        0        
C2        C        0.21875        0.962963        0.14882942307692307        0        
C2        C        0.28125        0.962963        0.14882942307692307        0        
C2        C        0.34375        0.962963        0.14882942307692307        0        
C2        C        0.40625        0.962963        0.14882942307692307        0        
C2        C        0.46875        0.962963        0.14882942307692307        0        
C2        C        0.53125        0.962963        0.14882942307692307        0        
C2        C        0.59375        0.962963        0.14882942307692307        0        
C2        C        0.65625        0.962963        0.14882942307692307        0        
C2        C        0.71875        0.962963        0.14882942307692307        0        
C2        C        0.78125        0.962963        0.14882942307692307        0        
C2        C        0.84375        0.962963        0.14882942307692307        0        
C2        C        0.9062500000000001        0.962963        0.14882942307692307        0        
C2        C        0.9687500000000001        0.962963        0.14882942307692307        0        
C3        C        0.0        0.9814809999999999        0.14882942307692307        0        
C3        C        0.0625        0.9814809999999999        0.14882942307692307        0        
C3        C        0.125        0.9814809999999999        0.14882942307692307        0        
C3        C        0.1875        0.9814809999999999        0.14882942307692307        0        
C3        C        0.25        0.9814809999999999        0.14882942307692307        0        
C3        C        0.3125        0.9814809999999999        0.14882942307692307        0        
C3        C        0.375        0.9814809999999999        0.14882942307692307        0        
C3        C        0.4375        0.9814809999999999        0.14882942307692307        0        
C3        C        0.5        0.9814809999999999        0.14882942307692307        0        
C3        C        0.5625        0.9814809999999999        0.14882942307692307        0        
C3        C        0.625        0.9814809999999999        0.14882942307692307        0        
C3        C        0.6875        0.9814809999999999        0.14882942307692307        0        
C3        C        0.75        0.9814809999999999        0.14882942307692307        0        
C3        C        0.8125        0.9814809999999999        0.14882942307692307        0        
C3        C        0.875        0.9814809999999999        0.14882942307692307        0        
C3        C        0.9375        0.9814809999999999        0.14882942307692307        0        
C4        C        0.03125        0.925925        0.14882942307692307        0        
C4        C        0.09375        0.925925        0.14882942307692307        0        
C4        C        0.15625        0.925925        0.14882942307692307        0        
C4        C        0.21875        0.925925        0.14882942307692307        0        
C4        C        0.28125        0.925925        0.14882942307692307        0        
C4        C        0.34375        0.925925        0.14882942307692307        0        
C4        C        0.40625        0.925925        0.14882942307692307        0        
C4        C        0.46875        0.925925        0.14882942307692307        0        
C4        C        0.53125        0.925925        0.14882942307692307        0        
C4        C        0.59375        0.925925        0.14882942307692307        0        
C4        C        0.65625        0.925925        0.14882942307692307        0        
C4        C        0.71875        0.925925        0.14882942307692307        0        
C4        C        0.78125        0.925925        0.14882942307692307        0        
C4        C        0.84375        0.925925        0.14882942307692307        0        
C4        C        0.9062500000000001        0.925925        0.14882942307692307        0        
C4        C        0.9687500000000001        0.925925        0.14882942307692307        0        
C1        C        0.0        0.018519        0.3635734230769231        0        
C2        C        0.03125        0.074075        0.3635734230769231        0        
C3        C        0.0        0.092592        0.3635734230769231        0        
C4        C        0.03125        0.037037        0.3635734230769231        0        
C1        C        0.0        0.12963        0.3635734230769231        0        
C2        C        0.03125        0.185185        0.3635734230769231        0        
C3        C        0.0        0.203703        0.3635734230769231        0        
C4        C        0.03125        0.148148        0.3635734230769231        0        
C1        C        0.0        0.24074099999999998        0.3635734230769231        0        
C2        C        0.03125        0.296297        0.3635734230769231        0        
C3        C        0.0        0.314815        0.3635734230769231        0        
C4        C        0.03125        0.259259        0.3635734230769231        0        
C1        C        0.0        0.351852        0.3635734230769231        0        
C2        C        0.03125        0.407408        0.3635734230769231        0        
C3        C        0.0        0.42592500000000005        0.3635734230769231        0        
C4        C        0.03125        0.37037        0.3635734230769231        0        
C1        C        0.0        0.46296300000000007        0.3635734230769231        0        
C2        C        0.03125        0.518519        0.3635734230769231        0        
C3        C        0.0        0.537037        0.3635734230769231        0        
C4        C        0.03125        0.481481        0.3635734230769231        0        
C1        C        0.0        0.574075        0.3635734230769231        0        
C2        C        0.03125        0.62963        0.3635734230769231        0        
C3        C        0.0        0.648148        0.3635734230769231        0        
C4        C        0.03125        0.592592        0.3635734230769231        0        
C1        C        0.0625        0.018519        0.3635734230769231        0        
C2        C        0.09375        0.074075        0.3635734230769231        0        
C3        C        0.0625        0.092592        0.3635734230769231        0        
C4        C        0.09375        0.037037        0.3635734230769231        0        
C1        C        0.0625        0.12963        0.3635734230769231        0        
C2        C        0.09375        0.185185        0.3635734230769231        0        
C3        C        0.0625        0.203703        0.3635734230769231        0        
C4        C        0.09375        0.148148        0.3635734230769231        0        
C1        C        0.0625        0.24074099999999998        0.3635734230769231        0        
C2        C        0.09375        0.296297        0.3635734230769231        0        
C3        C        0.0625        0.314815        0.3635734230769231        0        
C4        C        0.09375        0.259259        0.3635734230769231        0        
C1        C        0.0625        0.351852        0.3635734230769231        0        
C2        C        0.09375        0.407408        0.3635734230769231        0        
C3        C        0.0625        0.42592500000000005        0.3635734230769231        0        
C4        C        0.09375        0.37037        0.3635734230769231        0        
C1        C        0.0625        0.46296300000000007        0.3635734230769231        0        
C2        C        0.09375        0.518519        0.3635734230769231        0        
C3        C        0.0625        0.537037        0.3635734230769231        0        
C4        C        0.09375        0.481481        0.3635734230769231        0        
C1        C        0.0625        0.574075        0.3635734230769231        0        
C2        C        0.09375        0.62963        0.3635734230769231        0        
C3        C        0.0625        0.648148        0.3635734230769231        0        
C4        C        0.09375        0.592592        0.3635734230769231        0        
C1        C        0.125        0.018519        0.3635734230769231        0        
C2        C        0.15625        0.074075        0.3635734230769231        0        
C3        C        0.125        0.092592        0.3635734230769231        0        
C4        C        0.15625        0.037037        0.3635734230769231        0        
C1        C        0.125        0.12963        0.3635734230769231        0        
C2        C        0.15625        0.185185        0.3635734230769231        0        
C3        C        0.125        0.203703        0.3635734230769231        0        
C4        C        0.15625        0.148148        0.3635734230769231        0        
C1        C        0.125        0.24074099999999998        0.3635734230769231        0        
C2        C        0.15625        0.296297        0.3635734230769231        0        
C3        C        0.125        0.314815        0.3635734230769231        0        
C4        C        0.15625        0.259259        0.3635734230769231        0        
C1        C        0.125        0.351852        0.3635734230769231        0        
C2        C        0.15625        0.407408        0.3635734230769231        0        
C3        C        0.125        0.42592500000000005        0.3635734230769231        0        
C4        C        0.15625        0.37037        0.3635734230769231        0        
C1        C        0.125        0.46296300000000007        0.3635734230769231        0        
C2        C        0.15625        0.518519        0.3635734230769231        0        
C3        C        0.125        0.537037        0.3635734230769231        0        
C4        C        0.15625        0.481481        0.3635734230769231        0        
C1        C        0.125        0.574075        0.3635734230769231        0        
C2        C        0.15625        0.62963        0.3635734230769231        0        
C3        C        0.125        0.648148        0.3635734230769231        0        
C4        C        0.15625        0.592592        0.3635734230769231        0        
C1        C        0.1875        0.018519        0.3635734230769231        0        
C2        C        0.21875        0.074075        0.3635734230769231        0        
C3        C        0.1875        0.092592        0.3635734230769231        0        
C4        C        0.21875        0.037037        0.3635734230769231        0        
C1        C        0.1875        0.12963        0.3635734230769231        0        
C2        C        0.21875        0.185185        0.3635734230769231        0        
C3        C        0.1875        0.203703        0.3635734230769231        0        
C4        C        0.21875        0.148148        0.3635734230769231        0        
C1        C        0.1875        0.24074099999999998        0.3635734230769231        0        
C2        C        0.21875        0.296297        0.3635734230769231        0        
C3        C        0.1875        0.314815        0.3635734230769231        0        
C4        C        0.21875        0.259259        0.3635734230769231        0        
C1        C        0.1875        0.351852        0.3635734230769231        0        
C2        C        0.21875        0.407408        0.3635734230769231        0        
C3        C        0.1875        0.42592500000000005        0.3635734230769231        0        
C4        C        0.21875        0.37037        0.3635734230769231        0        
C1        C        0.1875        0.46296300000000007        0.3635734230769231        0        
C2        C        0.21875        0.518519        0.3635734230769231        0        
C3        C        0.1875        0.537037        0.3635734230769231        0        
C4        C        0.21875        0.481481        0.3635734230769231        0        
C1        C        0.1875        0.574075        0.3635734230769231        0        
C2        C        0.21875        0.62963        0.3635734230769231        0        
C3        C        0.1875        0.648148        0.3635734230769231        0        
C4        C        0.21875        0.592592        0.3635734230769231        0        
C1        C        0.25        0.018519        0.3635734230769231        0        
C2        C        0.28125        0.074075        0.3635734230769231        0        
C3        C        0.25        0.092592        0.3635734230769231        0        
C4        C        0.28125        0.037037        0.3635734230769231        0        
C1        C        0.25        0.12963        0.3635734230769231        0        
C2        C        0.28125        0.185185        0.3635734230769231        0        
C3        C        0.25        0.203703        0.3635734230769231        0        
C4        C        0.28125        0.148148        0.3635734230769231        0        
C1        C        0.25        0.24074099999999998        0.3635734230769231        0        
C2        C        0.28125        0.296297        0.3635734230769231        0        
C3        C        0.25        0.314815        0.3635734230769231        0        
C4        C        0.28125        0.259259        0.3635734230769231        0        
C1        C        0.25        0.351852        0.3635734230769231        0        
C2        C        0.28125        0.407408        0.3635734230769231        0        
C3        C        0.25        0.42592500000000005        0.3635734230769231        0        
C4        C        0.28125        0.37037        0.3635734230769231        0        
C1        C        0.25        0.46296300000000007        0.3635734230769231        0        
C2        C        0.28125        0.518519        0.3635734230769231        0        
C3        C        0.25        0.537037        0.3635734230769231        0        
C4        C        0.28125        0.481481        0.3635734230769231        0        
C1        C        0.25        0.574075        0.3635734230769231        0        
C2        C        0.28125        0.62963        0.3635734230769231        0        
C3        C        0.25        0.648148        0.3635734230769231        0        
C4        C        0.28125        0.592592        0.3635734230769231        0        
C1        C        0.3125        0.018519        0.3635734230769231        0        
C2        C        0.34375        0.074075        0.3635734230769231        0        
C3        C        0.3125        0.092592        0.3635734230769231        0        
C4        C        0.34375        0.037037        0.3635734230769231        0        
C1        C        0.3125        0.12963        0.3635734230769231        0        
C2        C        0.34375        0.185185        0.3635734230769231        0        
C3        C        0.3125        0.203703        0.3635734230769231        0        
C4        C        0.34375        0.148148        0.3635734230769231        0        
C1        C        0.3125        0.24074099999999998        0.3635734230769231        0        
C2        C        0.34375        0.296297        0.3635734230769231        0        
C3        C        0.3125        0.314815        0.3635734230769231        0        
C4        C        0.34375        0.259259        0.3635734230769231        0        
C1        C        0.3125        0.351852        0.3635734230769231        0        
C2        C        0.34375        0.407408        0.3635734230769231        0        
C3        C        0.3125        0.42592500000000005        0.3635734230769231        0        
C4        C        0.34375        0.37037        0.3635734230769231        0        
C1        C        0.3125        0.46296300000000007        0.3635734230769231        0        
C2        C        0.34375        0.518519        0.3635734230769231        0        
C3        C        0.3125        0.537037        0.3635734230769231        0        
C4        C        0.34375        0.481481        0.3635734230769231        0        
C1        C        0.3125        0.574075        0.3635734230769231        0        
C2        C        0.34375        0.62963        0.3635734230769231        0        
C3        C        0.3125        0.648148        0.3635734230769231        0        
C4        C        0.34375        0.592592        0.3635734230769231        0        
C1        C        0.375        0.018519        0.3635734230769231        0        
C2        C        0.40625        0.074075        0.3635734230769231        0        
C3        C        0.375        0.092592        0.3635734230769231        0        
C4        C        0.40625        0.037037        0.3635734230769231        0        
C1        C        0.375        0.12963        0.3635734230769231        0        
C2        C        0.40625        0.185185        0.3635734230769231        0        
C3        C        0.375        0.203703        0.3635734230769231        0        
C4        C        0.40625        0.148148        0.3635734230769231        0        
C1        C        0.375        0.24074099999999998        0.3635734230769231        0        
C2        C        0.40625        0.296297        0.3635734230769231        0        
C3        C        0.375        0.314815        0.3635734230769231        0        
C4        C        0.40625        0.259259        0.3635734230769231        0        
C1        C        0.375        0.351852        0.3635734230769231        0        
C2        C        0.40625        0.407408        0.3635734230769231        0        
C3        C        0.375        0.42592500000000005        0.3635734230769231        0        
C4        C        0.40625        0.37037        0.3635734230769231        0        
C1        C        0.375        0.46296300000000007        0.3635734230769231        0        
C2        C        0.40625        0.518519        0.3635734230769231        0        
C3        C        0.375        0.537037        0.3635734230769231        0        
C4        C        0.40625        0.481481        0.3635734230769231        0        
C1        C        0.375        0.574075        0.3635734230769231        0        
C2        C        0.40625        0.62963        0.3635734230769231        0        
C3        C        0.375        0.648148        0.3635734230769231        0        
C4        C        0.40625        0.592592        0.3635734230769231        0        
C1        C        0.4375        0.018519        0.3635734230769231        0        
C2        C        0.46875        0.074075        0.3635734230769231        0        
C3        C        0.4375        0.092592        0.3635734230769231        0        
C4        C        0.46875        0.037037        0.3635734230769231        0        
C1        C        0.4375        0.12963        0.3635734230769231        0        
C2        C        0.46875        0.185185        0.3635734230769231        0        
C3        C        0.4375        0.203703        0.3635734230769231        0        
C4        C        0.46875        0.148148        0.3635734230769231        0        
C1        C        0.4375        0.24074099999999998        0.3635734230769231        0        
C2        C        0.46875        0.296297        0.3635734230769231        0        
C3        C        0.4375        0.314815        0.3635734230769231        0        
C4        C        0.46875        0.259259        0.3635734230769231        0        
C1        C        0.4375        0.351852        0.3635734230769231        0        
C2        C        0.46875        0.407408        0.3635734230769231        0        
C3        C        0.4375        0.42592500000000005        0.3635734230769231        0        
C4        C        0.46875        0.37037        0.3635734230769231        0        
C1        C        0.4375        0.46296300000000007        0.3635734230769231        0        
C2        C        0.46875        0.518519        0.3635734230769231        0        
C3        C        0.4375        0.537037        0.3635734230769231        0        
C4        C        0.46875        0.481481        0.3635734230769231        0        
C1        C        0.4375        0.574075        0.3635734230769231        0        
C2        C        0.46875        0.62963        0.3635734230769231        0        
C3        C        0.4375        0.648148        0.3635734230769231        0        
C4        C        0.46875        0.592592        0.3635734230769231        0        
C1        C        0.5        0.018519        0.3635734230769231        0        
C2        C        0.53125        0.074075        0.3635734230769231        0        
C3        C        0.5        0.092592        0.3635734230769231        0        
C4        C        0.53125        0.037037        0.3635734230769231        0        
C1        C        0.5        0.12963        0.3635734230769231        0        
C2        C        0.53125        0.185185        0.3635734230769231        0        
C3        C        0.5        0.203703        0.3635734230769231        0        
C4        C        0.53125        0.148148        0.3635734230769231        0        
C1        C        0.5        0.24074099999999998        0.3635734230769231        0        
C2        C        0.53125        0.296297        0.3635734230769231        0        
C3        C        0.5        0.314815        0.3635734230769231        0        
C4        C        0.53125        0.259259        0.3635734230769231        0        
C1        C        0.5        0.351852        0.3635734230769231        0        
C2        C        0.53125        0.407408        0.3635734230769231        0        
C3        C        0.5        0.42592500000000005        0.3635734230769231        0        
C4        C        0.53125        0.37037        0.3635734230769231        0        
C1        C        0.5        0.46296300000000007        0.3635734230769231        0        
C2        C        0.53125        0.518519        0.3635734230769231        0        
C3        C        0.5        0.537037        0.3635734230769231        0        
C4        C        0.53125        0.481481        0.3635734230769231        0        
C1        C        0.5        0.574075        0.3635734230769231        0        
C2        C        0.53125        0.62963        0.3635734230769231        0        
C3        C        0.5        0.648148        0.3635734230769231        0        
C4        C        0.53125        0.592592        0.3635734230769231        0        
C1        C        0.5625        0.018519        0.3635734230769231        0        
C2        C        0.59375        0.074075        0.3635734230769231        0        
C3        C        0.5625        0.092592        0.3635734230769231        0        
C4        C        0.59375        0.037037        0.3635734230769231        0        
C1        C        0.5625        0.12963        0.3635734230769231        0        
C2        C        0.59375        0.185185        0.3635734230769231        0        
C3        C        0.5625        0.203703        0.3635734230769231        0        
C4        C        0.59375        0.148148        0.3635734230769231        0        
C1        C        0.5625        0.24074099999999998        0.3635734230769231        0        
C2        C        0.59375        0.296297        0.3635734230769231        0        
C3        C        0.5625        0.314815        0.3635734230769231        0        
C4        C        0.59375        0.259259        0.3635734230769231        0        
C1        C        0.5625        0.351852        0.3635734230769231        0        
C2        C        0.59375        0.407408        0.3635734230769231        0        
C3        C        0.5625        0.42592500000000005        0.3635734230769231        0        
C4        C        0.59375        0.37037        0.3635734230769231        0        
C1        C        0.5625        0.46296300000000007        0.3635734230769231        0        
C2        C        0.59375        0.518519        0.3635734230769231        0        
C3        C        0.5625        0.537037        0.3635734230769231        0        
C4        C        0.59375        0.481481        0.3635734230769231        0        
C1        C        0.5625        0.574075        0.3635734230769231        0        
C2        C        0.59375        0.62963        0.3635734230769231        0        
C3        C        0.5625        0.648148        0.3635734230769231        0        
C4        C        0.59375        0.592592        0.3635734230769231        0        
C1        C        0.625        0.018519        0.3635734230769231        0        
C2        C        0.65625        0.074075        0.3635734230769231        0        
C3        C        0.625        0.092592        0.3635734230769231        0        
C4        C        0.65625        0.037037        0.3635734230769231        0        
C1        C        0.625        0.12963        0.3635734230769231        0        
C2        C        0.65625        0.185185        0.3635734230769231        0        
C3        C        0.625        0.203703        0.3635734230769231        0        
C4        C        0.65625        0.148148        0.3635734230769231        0        
C1        C        0.625        0.24074099999999998        0.3635734230769231        0        
C2        C        0.65625        0.296297        0.3635734230769231        0        
C3        C        0.625        0.314815        0.3635734230769231        0        
C4        C        0.65625        0.259259        0.3635734230769231        0        
C1        C        0.625        0.351852        0.3635734230769231        0        
C2        C        0.65625        0.407408        0.3635734230769231        0        
C3        C        0.625        0.42592500000000005        0.3635734230769231        0        
C4        C        0.65625        0.37037        0.3635734230769231        0        
C1        C        0.625        0.46296300000000007        0.3635734230769231        0        
C2        C        0.65625        0.518519        0.3635734230769231        0        
C3        C        0.625        0.537037        0.3635734230769231        0        
C4        C        0.65625        0.481481        0.3635734230769231        0        
C1        C        0.625        0.574075        0.3635734230769231        0        
C2        C        0.65625        0.62963        0.3635734230769231        0        
C3        C        0.625        0.648148        0.3635734230769231        0        
C4        C        0.65625        0.592592        0.3635734230769231        0        
C1        C        0.6875        0.018519        0.3635734230769231        0        
C2        C        0.71875        0.074075        0.3635734230769231        0        
C3        C        0.6875        0.092592        0.3635734230769231        0        
C4        C        0.71875        0.037037        0.3635734230769231        0        
C1        C        0.6875        0.12963        0.3635734230769231        0        
C2        C        0.71875        0.185185        0.3635734230769231        0        
C3        C        0.6875        0.203703        0.3635734230769231        0        
C4        C        0.71875        0.148148        0.3635734230769231        0        
C1        C        0.6875        0.24074099999999998        0.3635734230769231        0        
C2        C        0.71875        0.296297        0.3635734230769231        0        
C3        C        0.6875        0.314815        0.3635734230769231        0        
C4        C        0.71875        0.259259        0.3635734230769231        0        
C1        C        0.6875        0.351852        0.3635734230769231        0        
C2        C        0.71875        0.407408        0.3635734230769231        0        
C3        C        0.6875        0.42592500000000005        0.3635734230769231        0        
C4        C        0.71875        0.37037        0.3635734230769231        0        
C1        C        0.6875        0.46296300000000007        0.3635734230769231        0        
C2        C        0.71875        0.518519        0.3635734230769231        0        
C3        C        0.6875        0.537037        0.3635734230769231        0        
C4        C        0.71875        0.481481        0.3635734230769231        0        
C1        C        0.6875        0.574075        0.3635734230769231        0        
C2        C        0.71875        0.62963        0.3635734230769231        0        
C3        C        0.6875        0.648148        0.3635734230769231        0        
C4        C        0.71875        0.592592        0.3635734230769231        0        
C1        C        0.75        0.018519        0.3635734230769231        0        
C2        C        0.78125        0.074075        0.3635734230769231        0        
C3        C        0.75        0.092592        0.3635734230769231        0        
C4        C        0.78125        0.037037        0.3635734230769231        0        
C1        C        0.75        0.12963        0.3635734230769231        0        
C2        C        0.78125        0.185185        0.3635734230769231        0        
C3        C        0.75        0.203703        0.3635734230769231        0        
C4        C        0.78125        0.148148        0.3635734230769231        0        
C1        C        0.75        0.24074099999999998        0.3635734230769231        0        
C2        C        0.78125        0.296297        0.3635734230769231        0        
C3        C        0.75        0.314815        0.3635734230769231        0        
C4        C        0.78125        0.259259        0.3635734230769231        0        
C1        C        0.75        0.351852        0.3635734230769231        0        
C2        C        0.78125        0.407408        0.3635734230769231        0        
C3        C        0.75        0.42592500000000005        0.3635734230769231        0        
C4        C        0.78125        0.37037        0.3635734230769231        0        
C1        C        0.75        0.46296300000000007        0.3635734230769231        0        
C2        C        0.78125        0.518519        0.3635734230769231        0        
C3        C        0.75        0.537037        0.3635734230769231        0        
C4        C        0.78125        0.481481        0.3635734230769231        0        
C1        C        0.75        0.574075        0.3635734230769231        0        
C2        C        0.78125        0.62963        0.3635734230769231        0        
C3        C        0.75        0.648148        0.3635734230769231        0        
C4        C        0.78125        0.592592        0.3635734230769231        0        
C1        C        0.8125        0.018519        0.3635734230769231        0        
C2        C        0.84375        0.074075        0.3635734230769231        0        
C3        C        0.8125        0.092592        0.3635734230769231        0        
C4        C        0.84375        0.037037        0.3635734230769231        0        
C1        C        0.8125        0.12963        0.3635734230769231        0        
C2        C        0.84375        0.185185        0.3635734230769231        0        
C3        C        0.8125        0.203703        0.3635734230769231        0        
C4        C        0.84375        0.148148        0.3635734230769231        0        
C1        C        0.8125        0.24074099999999998        0.3635734230769231        0        
C2        C        0.84375        0.296297        0.3635734230769231        0        
C3        C        0.8125        0.314815        0.3635734230769231        0        
C4        C        0.84375        0.259259        0.3635734230769231        0        
C1        C        0.8125        0.351852        0.3635734230769231        0        
C2        C        0.84375        0.407408        0.3635734230769231        0        
C3        C        0.8125        0.42592500000000005        0.3635734230769231        0        
C4        C        0.84375        0.37037        0.3635734230769231        0        
C1        C        0.8125        0.46296300000000007        0.3635734230769231        0        
C2        C        0.84375        0.518519        0.3635734230769231        0        
C3        C        0.8125        0.537037        0.3635734230769231        0        
C4        C        0.84375        0.481481        0.3635734230769231        0        
C1        C        0.8125        0.574075        0.3635734230769231        0        
C2        C        0.84375        0.62963        0.3635734230769231        0        
C3        C        0.8125        0.648148        0.3635734230769231        0        
C4        C        0.84375        0.592592        0.3635734230769231        0        
C1        C        0.875        0.018519        0.3635734230769231        0        
C2        C        0.9062500000000001        0.074075        0.3635734230769231        0        
C3        C        0.875        0.092592        0.3635734230769231        0        
C4        C        0.9062500000000001        0.037037        0.3635734230769231        0        
C1        C        0.875        0.12963        0.3635734230769231        0        
C2        C        0.9062500000000001        0.185185        0.3635734230769231        0        
C3        C        0.875        0.203703        0.3635734230769231        0        
C4        C        0.9062500000000001        0.148148        0.3635734230769231        0        
C1        C        0.875        0.24074099999999998        0.3635734230769231        0        
C2        C        0.9062500000000001        0.296297        0.3635734230769231        0        
C3        C        0.875        0.314815        0.3635734230769231        0        
C4        C        0.9062500000000001        0.259259        0.3635734230769231        0        
C1        C        0.875        0.351852        0.3635734230769231        0        
C2        C        0.9062500000000001        0.407408        0.3635734230769231        0        
C3        C        0.875        0.42592500000000005        0.3635734230769231        0        
C4        C        0.9062500000000001        0.37037        0.3635734230769231        0        
C1        C        0.875        0.46296300000000007        0.3635734230769231        0        
C2        C        0.9062500000000001        0.518519        0.3635734230769231        0        
C3        C        0.875        0.537037        0.3635734230769231        0        
C4        C        0.9062500000000001        0.481481        0.3635734230769231        0        
C1        C        0.875        0.574075        0.3635734230769231        0        
C2        C        0.9062500000000001        0.62963        0.3635734230769231        0        
C3        C        0.875        0.648148        0.3635734230769231        0        
C4        C        0.9062500000000001        0.592592        0.3635734230769231        0        
C1        C        0.9375        0.018519        0.3635734230769231        0        
C2        C        0.9687500000000001        0.074075        0.3635734230769231        0        
C3        C        0.9375        0.092592        0.3635734230769231        0        
C4        C        0.9687500000000001        0.037037        0.3635734230769231        0        
C1        C        0.9375        0.12963        0.3635734230769231        0        
C2        C        0.9687500000000001        0.185185        0.3635734230769231        0        
C3        C        0.9375        0.203703        0.3635734230769231        0        
C4        C        0.9687500000000001        0.148148        0.3635734230769231        0        
C1        C        0.9375        0.24074099999999998        0.3635734230769231        0        
C2        C        0.9687500000000001        0.296297        0.3635734230769231        0        
C3        C        0.9375        0.314815        0.3635734230769231        0        
C4        C        0.9687500000000001        0.259259        0.3635734230769231        0        
C1        C        0.9375        0.351852        0.3635734230769231        0        
C2        C        0.9687500000000001        0.407408        0.3635734230769231        0        
C3        C        0.9375        0.42592500000000005        0.3635734230769231        0        
C4        C        0.9687500000000001        0.37037        0.3635734230769231        0        
C1        C        0.9375        0.46296300000000007        0.3635734230769231        0        
C2        C        0.9687500000000001        0.518519        0.3635734230769231        0        
C3        C        0.9375        0.537037        0.3635734230769231        0        
C4        C        0.9687500000000001        0.481481        0.3635734230769231        0        
C1        C        0.9375        0.574075        0.3635734230769231        0        
C2        C        0.9687500000000001        0.62963        0.3635734230769231        0        
C3        C        0.9375        0.648148        0.3635734230769231        0        
C4        C        0.9687500000000001        0.592592        0.3635734230769231        0        
C1        C        0.0        0.685186        0.3635734230769231        0        
C1        C        0.0625        0.685186        0.3635734230769231        0        
C1        C        0.125        0.685186        0.3635734230769231        0        
C1        C        0.1875        0.685186        0.3635734230769231        0        
C1        C        0.25        0.685186        0.3635734230769231        0        
C1        C        0.3125        0.685186        0.3635734230769231        0        
C1        C        0.375        0.685186        0.3635734230769231        0        
C1        C        0.4375        0.685186        0.3635734230769231        0        
C1        C        0.5        0.685186        0.3635734230769231        0        
C1        C        0.5625        0.685186        0.3635734230769231        0        
C1        C        0.625        0.685186        0.3635734230769231        0        
C1        C        0.6875        0.685186        0.3635734230769231        0        
C1        C        0.75        0.685186        0.3635734230769231        0        
C1        C        0.8125        0.685186        0.3635734230769231        0        
C1        C        0.875        0.685186        0.3635734230769231        0        
C1        C        0.9375        0.685186        0.3635734230769231        0        
C2        C        0.03125        0.740741        0.3635734230769231        0        
C2        C        0.09375        0.740741        0.3635734230769231        0        
C2        C        0.15625        0.740741        0.3635734230769231        0        
C2        C        0.21875        0.740741        0.3635734230769231        0        
C2        C        0.28125        0.740741        0.3635734230769231        0        
C2        C        0.34375        0.740741        0.3635734230769231        0        
C2        C        0.40625        0.740741        0.3635734230769231        0        
C2        C        0.46875        0.740741        0.3635734230769231        0        
C2        C        0.53125        0.740741        0.3635734230769231        0        
C2        C        0.59375        0.740741        0.3635734230769231        0        
C2        C        0.65625        0.740741        0.3635734230769231        0        
C2        C        0.71875        0.740741        0.3635734230769231        0        
C2        C        0.78125        0.740741        0.3635734230769231        0        
C2        C        0.84375        0.740741        0.3635734230769231        0        
C2        C        0.9062500000000001        0.740741        0.3635734230769231        0        
C2        C        0.9687500000000001        0.740741        0.3635734230769231        0        
C3        C        0.0        0.759259        0.3635734230769231        0        
C3        C        0.0625        0.759259        0.3635734230769231        0        
C3        C        0.125        0.759259        0.3635734230769231        0        
C3        C        0.1875        0.759259        0.3635734230769231        0        
C3        C        0.25        0.759259        0.3635734230769231        0        
C3        C        0.3125        0.759259        0.3635734230769231        0        
C3        C        0.375        0.759259        0.3635734230769231        0        
C3        C        0.4375        0.759259        0.3635734230769231        0        
C3        C        0.5        0.759259        0.3635734230769231        0        
C3        C        0.5625        0.759259        0.3635734230769231        0        
C3        C        0.625        0.759259        0.3635734230769231        0        
C3        C        0.6875        0.759259        0.3635734230769231        0        
C3        C        0.75        0.759259        0.3635734230769231        0        
C3        C        0.8125        0.759259        0.3635734230769231        0        
C3        C        0.875        0.759259        0.3635734230769231        0        
C3        C        0.9375        0.759259        0.3635734230769231        0        
C4        C        0.03125        0.703703        0.3635734230769231        0        
C4        C        0.09375        0.703703        0.3635734230769231        0        
C4        C        0.15625        0.703703        0.3635734230769231        0        
C4        C        0.21875        0.703703        0.3635734230769231        0        
C4        C        0.28125        0.703703        0.3635734230769231        0        
C4        C        0.34375        0.703703        0.3635734230769231        0        
C4        C        0.40625        0.703703        0.3635734230769231        0        
C4        C        0.46875        0.703703        0.3635734230769231        0        
C4        C        0.53125        0.703703        0.3635734230769231        0        
C4        C        0.59375        0.703703        0.3635734230769231        0        
C4        C        0.65625        0.703703        0.3635734230769231        0        
C4        C        0.71875        0.703703        0.3635734230769231        0        
C4        C        0.78125        0.703703        0.3635734230769231        0        
C4        C        0.84375        0.703703        0.3635734230769231        0        
C4        C        0.9062500000000001        0.703703        0.3635734230769231        0        
C4        C        0.9687500000000001        0.703703        0.3635734230769231        0        
C1        C        0.0        0.796297        0.3635734230769231        0        
C1        C        0.0625        0.796297        0.3635734230769231        0        
C1        C        0.125        0.796297        0.3635734230769231        0        
C1        C        0.1875        0.796297        0.3635734230769231        0        
C1        C        0.25        0.796297        0.3635734230769231        0        
C1        C        0.3125        0.796297        0.3635734230769231        0        
C1        C        0.375        0.796297        0.3635734230769231        0        
C1        C        0.4375        0.796297        0.3635734230769231        0        
C1        C        0.5        0.796297        0.3635734230769231        0        
C1        C        0.5625        0.796297        0.3635734230769231        0        
C1        C        0.625        0.796297        0.3635734230769231        0        
C1        C        0.6875        0.796297        0.3635734230769231        0        
C1        C        0.75        0.796297        0.3635734230769231        0        
C1        C        0.8125        0.796297        0.3635734230769231        0        
C1        C        0.875        0.796297        0.3635734230769231        0        
C1        C        0.9375        0.796297        0.3635734230769231        0        
C2        C        0.03125        0.851852        0.3635734230769231        0        
C2        C        0.09375        0.851852        0.3635734230769231        0        
C2        C        0.15625        0.851852        0.3635734230769231        0        
C2        C        0.21875        0.851852        0.3635734230769231        0        
C2        C        0.28125        0.851852        0.3635734230769231        0        
C2        C        0.34375        0.851852        0.3635734230769231        0        
C2        C        0.40625        0.851852        0.3635734230769231        0        
C2        C        0.46875        0.851852        0.3635734230769231        0        
C2        C        0.53125        0.851852        0.3635734230769231        0        
C2        C        0.59375        0.851852        0.3635734230769231        0        
C2        C        0.65625        0.851852        0.3635734230769231        0        
C2        C        0.71875        0.851852        0.3635734230769231        0        
C2        C        0.78125        0.851852        0.3635734230769231        0        
C2        C        0.84375        0.851852        0.3635734230769231        0        
C2        C        0.9062500000000001        0.851852        0.3635734230769231        0        
C2        C        0.9687500000000001        0.851852        0.3635734230769231        0        
C3        C        0.0        0.87037        0.3635734230769231        0        
C3        C        0.0625        0.87037        0.3635734230769231        0        
C3        C        0.125        0.87037        0.3635734230769231        0        
C3        C        0.1875        0.87037        0.3635734230769231        0        
C3        C        0.25        0.87037        0.3635734230769231        0        
C3        C        0.3125        0.87037        0.3635734230769231        0        
C3        C        0.375        0.87037        0.3635734230769231        0        
C3        C        0.4375        0.87037        0.3635734230769231        0        
C3        C        0.5        0.87037        0.3635734230769231        0        
C3        C        0.5625        0.87037        0.3635734230769231        0        
C3        C        0.625        0.87037        0.3635734230769231        0        
C3        C        0.6875        0.87037        0.3635734230769231        0        
C3        C        0.75        0.87037        0.3635734230769231        0        
C3        C        0.8125        0.87037        0.3635734230769231        0        
C3        C        0.875        0.87037        0.3635734230769231        0        
C3        C        0.9375        0.87037        0.3635734230769231        0        
C4        C        0.03125        0.814814        0.3635734230769231        0        
C4        C        0.09375        0.814814        0.3635734230769231        0        
C4        C        0.15625        0.814814        0.3635734230769231        0        
C4        C        0.21875        0.814814        0.3635734230769231        0        
C4        C        0.28125        0.814814        0.3635734230769231        0        
C4        C        0.34375        0.814814        0.3635734230769231        0        
C4        C        0.40625        0.814814        0.3635734230769231        0        
C4        C        0.46875        0.814814        0.3635734230769231        0        
C4        C        0.53125        0.814814        0.3635734230769231        0        
C4        C        0.59375        0.814814        0.3635734230769231        0        
C4        C        0.65625        0.814814        0.3635734230769231        0        
C4        C        0.71875        0.814814        0.3635734230769231        0        
C4        C        0.78125        0.814814        0.3635734230769231        0        
C4        C        0.84375        0.814814        0.3635734230769231        0        
C4        C        0.9062500000000001        0.814814        0.3635734230769231        0        
C4        C        0.9687500000000001        0.814814        0.3635734230769231        0        
C1        C        0.0        0.907408        0.3635734230769231        0        
C1        C        0.0625        0.907408        0.3635734230769231        0        
C1        C        0.125        0.907408        0.3635734230769231        0        
C1        C        0.1875        0.907408        0.3635734230769231        0        
C1        C        0.25        0.907408        0.3635734230769231        0        
C1        C        0.3125        0.907408        0.3635734230769231        0        
C1        C        0.375        0.907408        0.3635734230769231        0        
C1        C        0.4375        0.907408        0.3635734230769231        0        
C1        C        0.5        0.907408        0.3635734230769231        0        
C1        C        0.5625        0.907408        0.3635734230769231        0        
C1        C        0.625        0.907408        0.3635734230769231        0        
C1        C        0.6875        0.907408        0.3635734230769231        0        
C1        C        0.75        0.907408        0.3635734230769231        0        
C1        C        0.8125        0.907408        0.3635734230769231        0        
C1        C        0.875        0.907408        0.3635734230769231        0        
C1        C        0.9375        0.907408        0.3635734230769231        0        
C2        C        0.03125        0.962963        0.3635734230769231        0        
C2        C        0.09375        0.962963        0.3635734230769231        0        
C2        C        0.15625        0.962963        0.3635734230769231        0        
C2        C        0.21875        0.962963        0.3635734230769231        0        
C2        C        0.28125        0.962963        0.3635734230769231        0        
C2        C        0.34375        0.962963        0.3635734230769231        0        
C2        C        0.40625        0.962963        0.3635734230769231        0        
C2        C        0.46875        0.962963        0.3635734230769231        0        
C2        C        0.53125        0.962963        0.3635734230769231        0        
C2        C        0.59375        0.962963        0.3635734230769231        0        
C2        C        0.65625        0.962963        0.3635734230769231        0        
C2        C        0.71875        0.962963        0.3635734230769231        0        
C2        C        0.78125        0.962963        0.3635734230769231        0        
C2        C        0.84375        0.962963        0.3635734230769231        0        
C2        C        0.9062500000000001        0.962963        0.3635734230769231        0        
C2        C        0.9687500000000001        0.962963        0.3635734230769231        0        
C3        C        0.0        0.9814809999999999        0.3635734230769231        0        
C3        C        0.0625        0.9814809999999999        0.3635734230769231        0        
C3        C        0.125        0.9814809999999999        0.3635734230769231        0        
C3        C        0.1875        0.9814809999999999        0.3635734230769231        0        
C3        C        0.25        0.9814809999999999        0.3635734230769231        0        
C3        C        0.3125        0.9814809999999999        0.3635734230769231        0        
C3        C        0.375        0.9814809999999999        0.3635734230769231        0        
C3        C        0.4375        0.9814809999999999        0.3635734230769231        0        
C3        C        0.5        0.9814809999999999        0.3635734230769231        0        
C3        C        0.5625        0.9814809999999999        0.3635734230769231        0        
C3        C        0.625        0.9814809999999999        0.3635734230769231        0        
C3        C        0.6875        0.9814809999999999        0.3635734230769231        0        
C3        C        0.75        0.9814809999999999        0.3635734230769231        0        
C3        C        0.8125        0.9814809999999999        0.3635734230769231        0        
C3        C        0.875        0.9814809999999999        0.3635734230769231        0        
C3        C        0.9375        0.9814809999999999        0.3635734230769231        0        
C4        C        0.03125        0.925925        0.3635734230769231        0        
C4        C        0.09375        0.925925        0.3635734230769231        0        
C4        C        0.15625        0.925925        0.3635734230769231        0        
C4        C        0.21875        0.925925        0.3635734230769231        0        
C4        C        0.28125        0.925925        0.3635734230769231        0        
C4        C        0.34375        0.925925        0.3635734230769231        0        
C4        C        0.40625        0.925925        0.3635734230769231        0        
C4        C        0.46875        0.925925        0.3635734230769231        0        
C4        C        0.53125        0.925925        0.3635734230769231        0        
C4        C        0.59375        0.925925        0.3635734230769231        0        
C4        C        0.65625        0.925925        0.3635734230769231        0        
C4        C        0.71875        0.925925        0.3635734230769231        0        
C4        C        0.78125        0.925925        0.3635734230769231        0        
C4        C        0.84375        0.925925        0.3635734230769231        0        
C4        C        0.9062500000000001        0.925925        0.3635734230769231        0        
C4        C        0.9687500000000001        0.925925        0.3635734230769231        0        
C_FG        C        0.0        0.018519        0.5783164230769231        0.08        
C2        C        0.03125        0.074075        0.5783164230769231        0        
C3        C        0.0        0.092592        0.5783164230769231        0        
C4        C        0.03125        0.037037        0.5783164230769231        0        
C1        C        0.0        0.12963        0.5783164230769231        0        
C2        C        0.03125        0.185185        0.5783164230769231        0        
C_FG        C        0.0        0.203703        0.5783164230769231        0.08        
C4        C        0.03125        0.148148        0.5783164230769231        0        
C1        C        0.0        0.24074099999999998        0.5783164230769231        0        
C2        C        0.03125        0.296297        0.5783164230769231        0        
C3        C        0.0        0.314815        0.5783164230769231        0        
C4        C        0.03125        0.259259        0.5783164230769231        0        
C_FG        C        0.0        0.351852        0.5783164230769231        0.08        
C2        C        0.03125        0.407408        0.5783164230769231        0        
C3        C        0.0        0.42592500000000005        0.5783164230769231        0        
C4        C        0.03125        0.37037        0.5783164230769231        0        
C1        C        0.0        0.46296300000000007        0.5783164230769231        0        
C2        C        0.03125        0.518519        0.5783164230769231        0        
C_FG        C        0.0        0.537037        0.5783164230769231        0.08        
C4        C        0.03125        0.481481        0.5783164230769231        0        
C1        C        0.0        0.574075        0.5783164230769231        0        
C2        C        0.03125        0.62963        0.5783164230769231        0        
C3        C        0.0        0.648148        0.5783164230769231        0        
C4        C        0.03125        0.592592        0.5783164230769231        0        
C1        C        0.0625        0.018519        0.5783164230769231        0        
C2        C        0.09375        0.074075        0.5783164230769231        0        
C3        C        0.0625        0.092592        0.5783164230769231        0        
C4        C        0.09375        0.037037        0.5783164230769231        0        
C1        C        0.0625        0.12963        0.5783164230769231        0        
C2        C        0.09375        0.185185        0.5783164230769231        0        
C3        C        0.0625        0.203703        0.5783164230769231        0        
C4        C        0.09375        0.148148        0.5783164230769231        0        
C1        C        0.0625        0.24074099999999998        0.5783164230769231        0        
C2        C        0.09375        0.296297        0.5783164230769231        0        
C3        C        0.0625        0.314815        0.5783164230769231        0        
C4        C        0.09375        0.259259        0.5783164230769231        0        
C1        C        0.0625        0.351852        0.5783164230769231        0        
C2        C        0.09375        0.407408        0.5783164230769231        0        
C3        C        0.0625        0.42592500000000005        0.5783164230769231        0        
C4        C        0.09375        0.37037        0.5783164230769231        0        
C1        C        0.0625        0.46296300000000007        0.5783164230769231        0        
C2        C        0.09375        0.518519        0.5783164230769231        0        
C3        C        0.0625        0.537037        0.5783164230769231        0        
C4        C        0.09375        0.481481        0.5783164230769231        0        
C1        C        0.0625        0.574075        0.5783164230769231        0        
C2        C        0.09375        0.62963        0.5783164230769231        0        
C3        C        0.0625        0.648148        0.5783164230769231        0        
C4        C        0.09375        0.592592        0.5783164230769231        0        
C1        C        0.125        0.018519        0.5783164230769231        0        
C2        C        0.15625        0.074075        0.5783164230769231        0        
C3        C        0.125        0.092592        0.5783164230769231        0        
C4        C        0.15625        0.037037        0.5783164230769231        0        
C1        C        0.125        0.12963        0.5783164230769231        0        
C2        C        0.15625        0.185185        0.5783164230769231        0        
C3        C        0.125        0.203703        0.5783164230769231        0        
C4        C        0.15625        0.148148        0.5783164230769231        0        
C1        C        0.125        0.24074099999999998        0.5783164230769231        0        
C2        C        0.15625        0.296297        0.5783164230769231        0        
C3        C        0.125        0.314815        0.5783164230769231        0        
C4        C        0.15625        0.259259        0.5783164230769231        0        
C1        C        0.125        0.351852        0.5783164230769231        0        
C2        C        0.15625        0.407408        0.5783164230769231        0        
C3        C        0.125        0.42592500000000005        0.5783164230769231        0        
C4        C        0.15625        0.37037        0.5783164230769231        0        
C1        C        0.125        0.46296300000000007        0.5783164230769231        0        
C2        C        0.15625        0.518519        0.5783164230769231        0        
C3        C        0.125        0.537037        0.5783164230769231        0        
C4        C        0.15625        0.481481        0.5783164230769231        0        
C1        C        0.125        0.574075        0.5783164230769231        0        
C2        C        0.15625        0.62963        0.5783164230769231        0        
C3        C        0.125        0.648148        0.5783164230769231        0        
C4        C        0.15625        0.592592        0.5783164230769231        0        
C1        C        0.1875        0.018519        0.5783164230769231        0        
C2        C        0.21875        0.074075        0.5783164230769231        0        
C3        C        0.1875        0.092592        0.5783164230769231        0        
C4        C        0.21875        0.037037        0.5783164230769231        0        
C1        C        0.1875        0.12963        0.5783164230769231        0        
C2        C        0.21875        0.185185        0.5783164230769231        0        
C3        C        0.1875        0.203703        0.5783164230769231        0        
C4        C        0.21875        0.148148        0.5783164230769231        0        
C1        C        0.1875        0.24074099999999998        0.5783164230769231        0        
C2        C        0.21875        0.296297        0.5783164230769231        0        
C3        C        0.1875        0.314815        0.5783164230769231        0        
C4        C        0.21875        0.259259        0.5783164230769231        0        
C1        C        0.1875        0.351852        0.5783164230769231        0        
C2        C        0.21875        0.407408        0.5783164230769231        0        
C3        C        0.1875        0.42592500000000005        0.5783164230769231        0        
C4        C        0.21875        0.37037        0.5783164230769231        0        
C1        C        0.1875        0.46296300000000007        0.5783164230769231        0        
C2        C        0.21875        0.518519        0.5783164230769231        0        
C3        C        0.1875        0.537037        0.5783164230769231        0        
C4        C        0.21875        0.481481        0.5783164230769231        0        
C1        C        0.1875        0.574075        0.5783164230769231        0        
C2        C        0.21875        0.62963        0.5783164230769231        0        
C3        C        0.1875        0.648148        0.5783164230769231        0        
C4        C        0.21875        0.592592        0.5783164230769231        0        
C_FG        C        0.25        0.018519        0.5783164230769231        0.08        
C2        C        0.28125        0.074075        0.5783164230769231        0        
C3        C        0.25        0.092592        0.5783164230769231        0        
C4        C        0.28125        0.037037        0.5783164230769231        0        
C1        C        0.25        0.12963        0.5783164230769231        0        
C2        C        0.28125        0.185185        0.5783164230769231        0        
C_FG        C        0.25        0.203703        0.5783164230769231        0.08        
C4        C        0.28125        0.148148        0.5783164230769231        0        
C1        C        0.25        0.24074099999999998        0.5783164230769231        0        
C2        C        0.28125        0.296297        0.5783164230769231        0        
C3        C        0.25        0.314815        0.5783164230769231        0        
C4        C        0.28125        0.259259        0.5783164230769231        0        
C_FG        C        0.25        0.351852        0.5783164230769231        0.08        
C2        C        0.28125        0.407408        0.5783164230769231        0        
C3        C        0.25        0.42592500000000005        0.5783164230769231        0        
C4        C        0.28125        0.37037        0.5783164230769231        0        
C1        C        0.25        0.46296300000000007        0.5783164230769231        0        
C2        C        0.28125        0.518519        0.5783164230769231        0        
C_FG        C        0.25        0.537037        0.5783164230769231        0.08        
C4        C        0.28125        0.481481        0.5783164230769231        0        
C1        C        0.25        0.574075        0.5783164230769231        0        
C2        C        0.28125        0.62963        0.5783164230769231        0        
C3        C        0.25        0.648148        0.5783164230769231        0        
C4        C        0.28125        0.592592        0.5783164230769231        0        
C1        C        0.3125        0.018519        0.5783164230769231        0        
C2        C        0.34375        0.074075        0.5783164230769231        0        
C3        C        0.3125        0.092592        0.5783164230769231        0        
C4        C        0.34375        0.037037        0.5783164230769231        0        
C1        C        0.3125        0.12963        0.5783164230769231        0        
C2        C        0.34375        0.185185        0.5783164230769231        0        
C3        C        0.3125        0.203703        0.5783164230769231        0        
C4        C        0.34375        0.148148        0.5783164230769231        0        
C1        C        0.3125        0.24074099999999998        0.5783164230769231        0        
C2        C        0.34375        0.296297        0.5783164230769231        0        
C3        C        0.3125        0.314815        0.5783164230769231        0        
C4        C        0.34375        0.259259        0.5783164230769231        0        
C1        C        0.3125        0.351852        0.5783164230769231        0        
C2        C        0.34375        0.407408        0.5783164230769231        0        
C3        C        0.3125        0.42592500000000005        0.5783164230769231        0        
C4        C        0.34375        0.37037        0.5783164230769231        0        
C1        C        0.3125        0.46296300000000007        0.5783164230769231        0        
C2        C        0.34375        0.518519        0.5783164230769231        0        
C3        C        0.3125        0.537037        0.5783164230769231        0        
C4        C        0.34375        0.481481        0.5783164230769231        0        
C1        C        0.3125        0.574075        0.5783164230769231        0        
C2        C        0.34375        0.62963        0.5783164230769231        0        
C3        C        0.3125        0.648148        0.5783164230769231        0        
C4        C        0.34375        0.592592        0.5783164230769231        0        
C1        C        0.375        0.018519        0.5783164230769231        0        
C2        C        0.40625        0.074075        0.5783164230769231        0        
C3        C        0.375        0.092592        0.5783164230769231        0        
C4        C        0.40625        0.037037        0.5783164230769231        0        
C1        C        0.375        0.12963        0.5783164230769231        0        
C2        C        0.40625        0.185185        0.5783164230769231        0        
C3        C        0.375        0.203703        0.5783164230769231        0        
C4        C        0.40625        0.148148        0.5783164230769231        0        
C1        C        0.375        0.24074099999999998        0.5783164230769231        0        
C2        C        0.40625        0.296297        0.5783164230769231        0        
C3        C        0.375        0.314815        0.5783164230769231        0        
C4        C        0.40625        0.259259        0.5783164230769231        0        
C1        C        0.375        0.351852        0.5783164230769231        0        
C2        C        0.40625        0.407408        0.5783164230769231        0        
C3        C        0.375        0.42592500000000005        0.5783164230769231        0        
C4        C        0.40625        0.37037        0.5783164230769231        0        
C1        C        0.375        0.46296300000000007        0.5783164230769231        0        
C2        C        0.40625        0.518519        0.5783164230769231        0        
C3        C        0.375        0.537037        0.5783164230769231        0        
C4        C        0.40625        0.481481        0.5783164230769231        0        
C1        C        0.375        0.574075        0.5783164230769231        0        
C2        C        0.40625        0.62963        0.5783164230769231        0        
C3        C        0.375        0.648148        0.5783164230769231        0        
C4        C        0.40625        0.592592        0.5783164230769231        0        
C1        C        0.4375        0.018519        0.5783164230769231        0        
C2        C        0.46875        0.074075        0.5783164230769231        0        
C3        C        0.4375        0.092592        0.5783164230769231        0        
C4        C        0.46875        0.037037        0.5783164230769231        0        
C1        C        0.4375        0.12963        0.5783164230769231        0        
C2        C        0.46875        0.185185        0.5783164230769231        0        
C3        C        0.4375        0.203703        0.5783164230769231        0        
C4        C        0.46875        0.148148        0.5783164230769231        0        
C1        C        0.4375        0.24074099999999998        0.5783164230769231        0        
C2        C        0.46875        0.296297        0.5783164230769231        0        
C3        C        0.4375        0.314815        0.5783164230769231        0        
C4        C        0.46875        0.259259        0.5783164230769231        0        
C1        C        0.4375        0.351852        0.5783164230769231        0        
C2        C        0.46875        0.407408        0.5783164230769231        0        
C3        C        0.4375        0.42592500000000005        0.5783164230769231        0        
C4        C        0.46875        0.37037        0.5783164230769231        0        
C1        C        0.4375        0.46296300000000007        0.5783164230769231        0        
C2        C        0.46875        0.518519        0.5783164230769231        0        
C3        C        0.4375        0.537037        0.5783164230769231        0        
C4        C        0.46875        0.481481        0.5783164230769231        0        
C1        C        0.4375        0.574075        0.5783164230769231        0        
C2        C        0.46875        0.62963        0.5783164230769231        0        
C3        C        0.4375        0.648148        0.5783164230769231        0        
C4        C        0.46875        0.592592        0.5783164230769231        0        
C_FG        C        0.5        0.018519        0.5783164230769231        0.08        
C2        C        0.53125        0.074075        0.5783164230769231        0        
C3        C        0.5        0.092592        0.5783164230769231        0        
C4        C        0.53125        0.037037        0.5783164230769231        0        
C1        C        0.5        0.12963        0.5783164230769231        0        
C2        C        0.53125        0.185185        0.5783164230769231        0        
C_FG        C        0.5        0.203703        0.5783164230769231        0.08        
C4        C        0.53125        0.148148        0.5783164230769231        0        
C1        C        0.5        0.24074099999999998        0.5783164230769231        0        
C2        C        0.53125        0.296297        0.5783164230769231        0        
C3        C        0.5        0.314815        0.5783164230769231        0        
C4        C        0.53125        0.259259        0.5783164230769231        0        
C_FG        C        0.5        0.351852        0.5783164230769231        0.08        
C2        C        0.53125        0.407408        0.5783164230769231        0        
C3        C        0.5        0.42592500000000005        0.5783164230769231        0        
C4        C        0.53125        0.37037        0.5783164230769231        0        
C1        C        0.5        0.46296300000000007        0.5783164230769231        0        
C2        C        0.53125        0.518519        0.5783164230769231        0        
C_FG        C        0.5        0.537037        0.5783164230769231        0.08        
C4        C        0.53125        0.481481        0.5783164230769231        0        
C1        C        0.5        0.574075        0.5783164230769231        0        
C2        C        0.53125        0.62963        0.5783164230769231        0        
C3        C        0.5        0.648148        0.5783164230769231        0        
C4        C        0.53125        0.592592        0.5783164230769231        0        
C1        C        0.5625        0.018519        0.5783164230769231        0        
C2        C        0.59375        0.074075        0.5783164230769231        0        
C3        C        0.5625        0.092592        0.5783164230769231        0        
C4        C        0.59375        0.037037        0.5783164230769231        0        
C1        C        0.5625        0.12963        0.5783164230769231        0        
C2        C        0.59375        0.185185        0.5783164230769231        0        
C3        C        0.5625        0.203703        0.5783164230769231        0        
C4        C        0.59375        0.148148        0.5783164230769231        0        
C1        C        0.5625        0.24074099999999998        0.5783164230769231        0        
C2        C        0.59375        0.296297        0.5783164230769231        0        
C3        C        0.5625        0.314815        0.5783164230769231        0        
C4        C        0.59375        0.259259        0.5783164230769231        0        
C1        C        0.5625        0.351852        0.5783164230769231        0        
C2        C        0.59375        0.407408        0.5783164230769231        0        
C3        C        0.5625        0.42592500000000005        0.5783164230769231        0        
C4        C        0.59375        0.37037        0.5783164230769231        0        
C1        C        0.5625        0.46296300000000007        0.5783164230769231        0        
C2        C        0.59375        0.518519        0.5783164230769231        0        
C3        C        0.5625        0.537037        0.5783164230769231        0        
C4        C        0.59375        0.481481        0.5783164230769231        0        
C1        C        0.5625        0.574075        0.5783164230769231        0        
C2        C        0.59375        0.62963        0.5783164230769231        0        
C3        C        0.5625        0.648148        0.5783164230769231        0        
C4        C        0.59375        0.592592        0.5783164230769231        0        
C1        C        0.625        0.018519        0.5783164230769231        0        
C2        C        0.65625        0.074075        0.5783164230769231        0        
C3        C        0.625        0.092592        0.5783164230769231        0        
C4        C        0.65625        0.037037        0.5783164230769231        0        
C1        C        0.625        0.12963        0.5783164230769231        0        
C2        C        0.65625        0.185185        0.5783164230769231        0        
C3        C        0.625        0.203703        0.5783164230769231        0        
C4        C        0.65625        0.148148        0.5783164230769231        0        
C1        C        0.625        0.24074099999999998        0.5783164230769231        0        
C2        C        0.65625        0.296297        0.5783164230769231        0        
C3        C        0.625        0.314815        0.5783164230769231        0        
C4        C        0.65625        0.259259        0.5783164230769231        0        
C1        C        0.625        0.351852        0.5783164230769231        0        
C2        C        0.65625        0.407408        0.5783164230769231        0        
C3        C        0.625        0.42592500000000005        0.5783164230769231        0        
C4        C        0.65625        0.37037        0.5783164230769231        0        
C1        C        0.625        0.46296300000000007        0.5783164230769231        0        
C2        C        0.65625        0.518519        0.5783164230769231        0        
C3        C        0.625        0.537037        0.5783164230769231        0        
C4        C        0.65625        0.481481        0.5783164230769231        0        
C1        C        0.625        0.574075        0.5783164230769231        0        
C2        C        0.65625        0.62963        0.5783164230769231        0        
C3        C        0.625        0.648148        0.5783164230769231        0        
C4        C        0.65625        0.592592        0.5783164230769231        0        
C1        C        0.6875        0.018519        0.5783164230769231        0        
C2        C        0.71875        0.074075        0.5783164230769231        0        
C3        C        0.6875        0.092592        0.5783164230769231        0        
C4        C        0.71875        0.037037        0.5783164230769231        0        
C1        C        0.6875        0.12963        0.5783164230769231        0        
C2        C        0.71875        0.185185        0.5783164230769231        0        
C3        C        0.6875        0.203703        0.5783164230769231        0        
C4        C        0.71875        0.148148        0.5783164230769231        0        
C1        C        0.6875        0.24074099999999998        0.5783164230769231        0        
C2        C        0.71875        0.296297        0.5783164230769231        0        
C3        C        0.6875        0.314815        0.5783164230769231        0        
C4        C        0.71875        0.259259        0.5783164230769231        0        
C1        C        0.6875        0.351852        0.5783164230769231        0        
C2        C        0.71875        0.407408        0.5783164230769231        0        
C3        C        0.6875        0.42592500000000005        0.5783164230769231        0        
C4        C        0.71875        0.37037        0.5783164230769231        0        
C1        C        0.6875        0.46296300000000007        0.5783164230769231        0        
C2        C        0.71875        0.518519        0.5783164230769231        0        
C3        C        0.6875        0.537037        0.5783164230769231        0        
C4        C        0.71875        0.481481        0.5783164230769231        0        
C1        C        0.6875        0.574075        0.5783164230769231        0        
C2        C        0.71875        0.62963        0.5783164230769231        0        
C3        C        0.6875        0.648148        0.5783164230769231        0        
C4        C        0.71875        0.592592        0.5783164230769231        0        
C_FG        C        0.75        0.018519        0.5783164230769231        0.08        
C2        C        0.78125        0.074075        0.5783164230769231        0        
C3        C        0.75        0.092592        0.5783164230769231        0        
C4        C        0.78125        0.037037        0.5783164230769231        0        
C1        C        0.75        0.12963        0.5783164230769231        0        
C2        C        0.78125        0.185185        0.5783164230769231        0        
C_FG        C        0.75        0.203703        0.5783164230769231        0.08        
C4        C        0.78125        0.148148        0.5783164230769231        0        
C1        C        0.75        0.24074099999999998        0.5783164230769231        0        
C2        C        0.78125        0.296297        0.5783164230769231        0        
C3        C        0.75        0.314815        0.5783164230769231        0        
C4        C        0.78125        0.259259        0.5783164230769231        0        
C_FG        C        0.75        0.351852        0.5783164230769231        0.08        
C2        C        0.78125        0.407408        0.5783164230769231        0        
C3        C        0.75        0.42592500000000005        0.5783164230769231        0        
C4        C        0.78125        0.37037        0.5783164230769231        0        
C1        C        0.75        0.46296300000000007        0.5783164230769231        0        
C2        C        0.78125        0.518519        0.5783164230769231        0        
C_FG        C        0.75        0.537037        0.5783164230769231        0.08        
C4        C        0.78125        0.481481        0.5783164230769231        0        
C1        C        0.75        0.574075        0.5783164230769231        0        
C2        C        0.78125        0.62963        0.5783164230769231        0        
C3        C        0.75        0.648148        0.5783164230769231        0        
C4        C        0.78125        0.592592        0.5783164230769231        0        
C1        C        0.8125        0.018519        0.5783164230769231        0        
C2        C        0.84375        0.074075        0.5783164230769231        0        
C3        C        0.8125        0.092592        0.5783164230769231        0        
C4        C        0.84375        0.037037        0.5783164230769231        0        
C1        C        0.8125        0.12963        0.5783164230769231        0        
C2        C        0.84375        0.185185        0.5783164230769231        0        
C3        C        0.8125        0.203703        0.5783164230769231        0        
C4        C        0.84375        0.148148        0.5783164230769231        0        
C1        C        0.8125        0.24074099999999998        0.5783164230769231        0        
C2        C        0.84375        0.296297        0.5783164230769231        0        
C3        C        0.8125        0.314815        0.5783164230769231        0        
C4        C        0.84375        0.259259        0.5783164230769231        0        
C1        C        0.8125        0.351852        0.5783164230769231        0        
C2        C        0.84375        0.407408        0.5783164230769231        0        
C3        C        0.8125        0.42592500000000005        0.5783164230769231        0        
C4        C        0.84375        0.37037        0.5783164230769231        0        
C1        C        0.8125        0.46296300000000007        0.5783164230769231        0        
C2        C        0.84375        0.518519        0.5783164230769231        0        
C3        C        0.8125        0.537037        0.5783164230769231        0        
C4        C        0.84375        0.481481        0.5783164230769231        0        
C1        C        0.8125        0.574075        0.5783164230769231        0        
C2        C        0.84375        0.62963        0.5783164230769231        0        
C3        C        0.8125        0.648148        0.5783164230769231        0        
C4        C        0.84375        0.592592        0.5783164230769231        0        
C1        C        0.875        0.018519        0.5783164230769231        0        
C2        C        0.9062500000000001        0.074075        0.5783164230769231        0        
C3        C        0.875        0.092592        0.5783164230769231        0        
C4        C        0.9062500000000001        0.037037        0.5783164230769231        0        
C1        C        0.875        0.12963        0.5783164230769231        0        
C2        C        0.9062500000000001        0.185185        0.5783164230769231        0        
C3        C        0.875        0.203703        0.5783164230769231        0        
C4        C        0.9062500000000001        0.148148        0.5783164230769231        0        
C1        C        0.875        0.24074099999999998        0.5783164230769231        0        
C2        C        0.9062500000000001        0.296297        0.5783164230769231        0        
C3        C        0.875        0.314815        0.5783164230769231        0        
C4        C        0.9062500000000001        0.259259        0.5783164230769231        0        
C1        C        0.875        0.351852        0.5783164230769231        0        
C2        C        0.9062500000000001        0.407408        0.5783164230769231        0        
C3        C        0.875        0.42592500000000005        0.5783164230769231        0        
C4        C        0.9062500000000001        0.37037        0.5783164230769231        0        
C1        C        0.875        0.46296300000000007        0.5783164230769231        0        
C2        C        0.9062500000000001        0.518519        0.5783164230769231        0        
C3        C        0.875        0.537037        0.5783164230769231        0        
C4        C        0.9062500000000001        0.481481        0.5783164230769231        0        
C1        C        0.875        0.574075        0.5783164230769231        0        
C2        C        0.9062500000000001        0.62963        0.5783164230769231        0        
C3        C        0.875        0.648148        0.5783164230769231        0        
C4        C        0.9062500000000001        0.592592        0.5783164230769231        0        
C1        C        0.9375        0.018519        0.5783164230769231        0        
C2        C        0.9687500000000001        0.074075        0.5783164230769231        0        
C3        C        0.9375        0.092592        0.5783164230769231        0        
C4        C        0.9687500000000001        0.037037        0.5783164230769231        0        
C1        C        0.9375        0.12963        0.5783164230769231        0        
C2        C        0.9687500000000001        0.185185        0.5783164230769231        0        
C3        C        0.9375        0.203703        0.5783164230769231        0        
C4        C        0.9687500000000001        0.148148        0.5783164230769231        0        
C1        C        0.9375        0.24074099999999998        0.5783164230769231        0        
C2        C        0.9687500000000001        0.296297        0.5783164230769231        0        
C3        C        0.9375        0.314815        0.5783164230769231        0        
C4        C        0.9687500000000001        0.259259        0.5783164230769231        0        
C1        C        0.9375        0.351852        0.5783164230769231        0        
C2        C        0.9687500000000001        0.407408        0.5783164230769231        0        
C3        C        0.9375        0.42592500000000005        0.5783164230769231        0        
C4        C        0.9687500000000001        0.37037        0.5783164230769231        0        
C1        C        0.9375        0.46296300000000007        0.5783164230769231        0        
C2        C        0.9687500000000001        0.518519        0.5783164230769231        0        
C3        C        0.9375        0.537037        0.5783164230769231        0        
C4        C        0.9687500000000001        0.481481        0.5783164230769231        0        
C1        C        0.9375        0.574075        0.5783164230769231        0        
C2        C        0.9687500000000001        0.62963        0.5783164230769231        0        
C3        C        0.9375        0.648148        0.5783164230769231        0        
C4        C        0.9687500000000001        0.592592        0.5783164230769231        0        
C_FG        C        0.0        0.685186        0.5783164230769231        0.08        
C1        C        0.0625        0.685186        0.5783164230769231        0        
C1        C        0.125        0.685186        0.5783164230769231        0        
C1        C        0.1875        0.685186        0.5783164230769231        0        
C_FG        C        0.25        0.685186        0.5783164230769231        0.08        
C1        C        0.3125        0.685186        0.5783164230769231        0        
C1        C        0.375        0.685186        0.5783164230769231        0        
C1        C        0.4375        0.685186        0.5783164230769231        0        
C_FG        C        0.5        0.685186        0.5783164230769231        0.08        
C1        C        0.5625        0.685186        0.5783164230769231        0        
C1        C        0.625        0.685186        0.5783164230769231        0        
C1        C        0.6875        0.685186        0.5783164230769231        0        
C_FG        C        0.75        0.685186        0.5783164230769231        0.08        
C1        C        0.8125        0.685186        0.5783164230769231        0        
C1        C        0.875        0.685186        0.5783164230769231        0        
C1        C        0.9375        0.685186        0.5783164230769231        0        
C2        C        0.03125        0.740741        0.5783164230769231        0        
C2        C        0.09375        0.740741        0.5783164230769231        0        
C2        C        0.15625        0.740741        0.5783164230769231        0        
C2        C        0.21875        0.740741        0.5783164230769231        0        
C2        C        0.28125        0.740741        0.5783164230769231        0        
C2        C        0.34375        0.740741        0.5783164230769231        0        
C2        C        0.40625        0.740741        0.5783164230769231        0        
C2        C        0.46875        0.740741        0.5783164230769231        0        
C2        C        0.53125        0.740741        0.5783164230769231        0        
C2        C        0.59375        0.740741        0.5783164230769231        0        
C2        C        0.65625        0.740741        0.5783164230769231        0        
C2        C        0.71875        0.740741        0.5783164230769231        0        
C2        C        0.78125        0.740741        0.5783164230769231        0        
C2        C        0.84375        0.740741        0.5783164230769231        0        
C2        C        0.9062500000000001        0.740741        0.5783164230769231        0        
C2        C        0.9687500000000001        0.740741        0.5783164230769231        0        
C3        C        0.0        0.759259        0.5783164230769231        0        
C3        C        0.0625        0.759259        0.5783164230769231        0        
C3        C        0.125        0.759259        0.5783164230769231        0        
C3        C        0.1875        0.759259        0.5783164230769231        0        
C3        C        0.25        0.759259        0.5783164230769231        0        
C3        C        0.3125        0.759259        0.5783164230769231        0        
C3        C        0.375        0.759259        0.5783164230769231        0        
C3        C        0.4375        0.759259        0.5783164230769231        0        
C3        C        0.5        0.759259        0.5783164230769231        0        
C3        C        0.5625        0.759259        0.5783164230769231        0        
C3        C        0.625        0.759259        0.5783164230769231        0        
C3        C        0.6875        0.759259        0.5783164230769231        0        
C3        C        0.75        0.759259        0.5783164230769231        0        
C3        C        0.8125        0.759259        0.5783164230769231        0        
C3        C        0.875        0.759259        0.5783164230769231        0        
C3        C        0.9375        0.759259        0.5783164230769231        0        
C4        C        0.03125        0.703703        0.5783164230769231        0        
C4        C        0.09375        0.703703        0.5783164230769231        0        
C4        C        0.15625        0.703703        0.5783164230769231        0        
C4        C        0.21875        0.703703        0.5783164230769231        0        
C4        C        0.28125        0.703703        0.5783164230769231        0        
C4        C        0.34375        0.703703        0.5783164230769231        0        
C4        C        0.40625        0.703703        0.5783164230769231        0        
C4        C        0.46875        0.703703        0.5783164230769231        0        
C4        C        0.53125        0.703703        0.5783164230769231        0        
C4        C        0.59375        0.703703        0.5783164230769231        0        
C4        C        0.65625        0.703703        0.5783164230769231        0        
C4        C        0.71875        0.703703        0.5783164230769231        0        
C4        C        0.78125        0.703703        0.5783164230769231        0        
C4        C        0.84375        0.703703        0.5783164230769231        0        
C4        C        0.9062500000000001        0.703703        0.5783164230769231        0        
C4        C        0.9687500000000001        0.703703        0.5783164230769231        0        
C1        C        0.0        0.796297        0.5783164230769231        0        
C1        C        0.0625        0.796297        0.5783164230769231        0        
C1        C        0.125        0.796297        0.5783164230769231        0        
C1        C        0.1875        0.796297        0.5783164230769231        0        
C1        C        0.25        0.796297        0.5783164230769231        0        
C1        C        0.3125        0.796297        0.5783164230769231        0        
C1        C        0.375        0.796297        0.5783164230769231        0        
C1        C        0.4375        0.796297        0.5783164230769231        0        
C1        C        0.5        0.796297        0.5783164230769231        0        
C1        C        0.5625        0.796297        0.5783164230769231        0        
C1        C        0.625        0.796297        0.5783164230769231        0        
C1        C        0.6875        0.796297        0.5783164230769231        0        
C1        C        0.75        0.796297        0.5783164230769231        0        
C1        C        0.8125        0.796297        0.5783164230769231        0        
C1        C        0.875        0.796297        0.5783164230769231        0        
C1        C        0.9375        0.796297        0.5783164230769231        0        
C2        C        0.03125        0.851852        0.5783164230769231        0        
C2        C        0.09375        0.851852        0.5783164230769231        0        
C2        C        0.15625        0.851852        0.5783164230769231        0        
C2        C        0.21875        0.851852        0.5783164230769231        0        
C2        C        0.28125        0.851852        0.5783164230769231        0        
C2        C        0.34375        0.851852        0.5783164230769231        0        
C2        C        0.40625        0.851852        0.5783164230769231        0        
C2        C        0.46875        0.851852        0.5783164230769231        0        
C2        C        0.53125        0.851852        0.5783164230769231        0        
C2        C        0.59375        0.851852        0.5783164230769231        0        
C2        C        0.65625        0.851852        0.5783164230769231        0        
C2        C        0.71875        0.851852        0.5783164230769231        0        
C2        C        0.78125        0.851852        0.5783164230769231        0        
C2        C        0.84375        0.851852        0.5783164230769231        0        
C2        C        0.9062500000000001        0.851852        0.5783164230769231        0        
C2        C        0.9687500000000001        0.851852        0.5783164230769231        0        
C_FG        C        0.0        0.87037        0.5783164230769231        0.08        
C3        C        0.0625        0.87037        0.5783164230769231        0        
C3        C        0.125        0.87037        0.5783164230769231        0        
C3        C        0.1875        0.87037        0.5783164230769231        0        
C_FG        C        0.25        0.87037        0.5783164230769231        0.08        
C3        C        0.3125        0.87037        0.5783164230769231        0        
C3        C        0.375        0.87037        0.5783164230769231        0        
C3        C        0.4375        0.87037        0.5783164230769231        0        
C_FG        C        0.5        0.87037        0.5783164230769231        0.08        
C3        C        0.5625        0.87037        0.5783164230769231        0        
C3        C        0.625        0.87037        0.5783164230769231        0        
C3        C        0.6875        0.87037        0.5783164230769231        0        
C_FG        C        0.75        0.87037        0.5783164230769231        0.08        
C3        C        0.8125        0.87037        0.5783164230769231        0        
C3        C        0.875        0.87037        0.5783164230769231        0        
C3        C        0.9375        0.87037        0.5783164230769231        0        
C4        C        0.03125        0.814814        0.5783164230769231        0        
C4        C        0.09375        0.814814        0.5783164230769231        0        
C4        C        0.15625        0.814814        0.5783164230769231        0        
C4        C        0.21875        0.814814        0.5783164230769231        0        
C4        C        0.28125        0.814814        0.5783164230769231        0        
C4        C        0.34375        0.814814        0.5783164230769231        0        
C4        C        0.40625        0.814814        0.5783164230769231        0        
C4        C        0.46875        0.814814        0.5783164230769231        0        
C4        C        0.53125        0.814814        0.5783164230769231        0        
C4        C        0.59375        0.814814        0.5783164230769231        0        
C4        C        0.65625        0.814814        0.5783164230769231        0        
C4        C        0.71875        0.814814        0.5783164230769231        0        
C4        C        0.78125        0.814814        0.5783164230769231        0        
C4        C        0.84375        0.814814        0.5783164230769231        0        
C4        C        0.9062500000000001        0.814814        0.5783164230769231        0        
C4        C        0.9687500000000001        0.814814        0.5783164230769231        0        
C1        C        0.0        0.907408        0.5783164230769231        0        
C1        C        0.0625        0.907408        0.5783164230769231        0        
C1        C        0.125        0.907408        0.5783164230769231        0        
C1        C        0.1875        0.907408        0.5783164230769231        0        
C1        C        0.25        0.907408        0.5783164230769231        0        
C1        C        0.3125        0.907408        0.5783164230769231        0        
C1        C        0.375        0.907408        0.5783164230769231        0        
C1        C        0.4375        0.907408        0.5783164230769231        0        
C1        C        0.5        0.907408        0.5783164230769231        0        
C1        C        0.5625        0.907408        0.5783164230769231        0        
C1        C        0.625        0.907408        0.5783164230769231        0        
C1        C        0.6875        0.907408        0.5783164230769231        0        
C1        C        0.75        0.907408        0.5783164230769231        0        
C1        C        0.8125        0.907408        0.5783164230769231        0        
C1        C        0.875        0.907408        0.5783164230769231        0        
C1        C        0.9375        0.907408        0.5783164230769231        0        
C2        C        0.03125        0.962963        0.5783164230769231        0        
C2        C        0.09375        0.962963        0.5783164230769231        0        
C2        C        0.15625        0.962963        0.5783164230769231        0        
C2        C        0.21875        0.962963        0.5783164230769231        0        
C2        C        0.28125        0.962963        0.5783164230769231        0        
C2        C        0.34375        0.962963        0.5783164230769231        0        
C2        C        0.40625        0.962963        0.5783164230769231        0        
C2        C        0.46875        0.962963        0.5783164230769231        0        
C2        C        0.53125        0.962963        0.5783164230769231        0        
C2        C        0.59375        0.962963        0.5783164230769231        0        
C2        C        0.65625        0.962963        0.5783164230769231        0        
C2        C        0.71875        0.962963        0.5783164230769231        0        
C2        C        0.78125        0.962963        0.5783164230769231        0        
C2        C        0.84375        0.962963        0.5783164230769231        0        
C2        C        0.9062500000000001        0.962963        0.5783164230769231        0        
C2        C        0.9687500000000001        0.962963        0.5783164230769231        0        
C3        C        0.0        0.9814809999999999        0.5783164230769231        0        
C3        C        0.0625        0.9814809999999999        0.5783164230769231        0        
C3        C        0.125        0.9814809999999999        0.5783164230769231        0        
C3        C        0.1875        0.9814809999999999        0.5783164230769231        0        
C3        C        0.25        0.9814809999999999        0.5783164230769231        0        
C3        C        0.3125        0.9814809999999999        0.5783164230769231        0        
C3        C        0.375        0.9814809999999999        0.5783164230769231        0        
C3        C        0.4375        0.9814809999999999        0.5783164230769231        0        
C3        C        0.5        0.9814809999999999        0.5783164230769231        0        
C3        C        0.5625        0.9814809999999999        0.5783164230769231        0        
C3        C        0.625        0.9814809999999999        0.5783164230769231        0        
C3        C        0.6875        0.9814809999999999        0.5783164230769231        0        
C3        C        0.75        0.9814809999999999        0.5783164230769231        0        
C3        C        0.8125        0.9814809999999999        0.5783164230769231        0        
C3        C        0.875        0.9814809999999999        0.5783164230769231        0        
C3        C        0.9375        0.9814809999999999        0.5783164230769231        0        
C4        C        0.03125        0.925925        0.5783164230769231        0        
C4        C        0.09375        0.925925        0.5783164230769231        0        
C4        C        0.15625        0.925925        0.5783164230769231        0        
C4        C        0.21875        0.925925        0.5783164230769231        0        
C4        C        0.28125        0.925925        0.5783164230769231        0        
C4        C        0.34375        0.925925        0.5783164230769231        0        
C4        C        0.40625        0.925925        0.5783164230769231        0        
C4        C        0.46875        0.925925        0.5783164230769231        0        
C4        C        0.53125        0.925925        0.5783164230769231        0        
C4        C        0.59375        0.925925        0.5783164230769231        0        
C4        C        0.65625        0.925925        0.5783164230769231        0        
C4        C        0.71875        0.925925        0.5783164230769231        0        
C4        C        0.78125        0.925925        0.5783164230769231        0        
C4        C        0.84375        0.925925        0.5783164230769231        0        
C4        C        0.9062500000000001        0.925925        0.5783164230769231        0        
C4        C        0.9687500000000001        0.925925        0.5783164230769231        0        
C_COOH        C        0.0        0.018519        0.05139352564102564        0.55        
C_COOH        C        0.0        0.203703        0.05139352564102564        0.55        
C_COOH        C        0.0        0.351852        0.05139352564102564        0.55        
C_COOH        C        0.0        0.537037        0.05139352564102564        0.55        
C_COOH        C        0.25        0.018519        0.05139352564102564        0.55        
C_COOH        C        0.25        0.203703        0.05139352564102564        0.55        
C_COOH        C        0.25        0.351852        0.05139352564102564        0.55        
C_COOH        C        0.25        0.537037        0.05139352564102564        0.55        
C_COOH        C        0.5        0.018519        0.05139352564102564        0.55        
C_COOH        C        0.5        0.203703        0.05139352564102564        0.55        
C_COOH        C        0.5        0.351852        0.05139352564102564        0.55        
C_COOH        C        0.5        0.537037        0.05139352564102564        0.55        
C_COOH        C        0.75        0.018519        0.05139352564102564        0.55        
C_COOH        C        0.75        0.203703        0.05139352564102564        0.55        
C_COOH        C        0.75        0.351852        0.05139352564102564        0.55        
C_COOH        C        0.75        0.537037        0.05139352564102564        0.55        
C_COOH        C        0.0        0.685186        0.05139352564102564        0.55        
C_COOH        C        0.25        0.685186        0.05139352564102564        0.55        
C_COOH        C        0.5        0.685186        0.05139352564102564        0.55        
C_COOH        C        0.75        0.685186        0.05139352564102564        0.55        
C_COOH        C        0.0        0.87037        0.05139352564102564        0.55        
C_COOH        C        0.25        0.87037        0.05139352564102564        0.55        
C_COOH        C        0.5        0.87037        0.05139352564102564        0.55        
C_COOH        C        0.75        0.87037        0.05139352564102564        0.55        
C_COOH        C        0.0        0.018519        0.6757525        0.55        
C_COOH        C        0.0        0.203703        0.6757525        0.55        
C_COOH        C        0.0        0.351852        0.6757525        0.55        
C_COOH        C        0.0        0.537037        0.6757525        0.55        
C_COOH        C        0.25        0.018519        0.6757525        0.55        
C_COOH        C        0.25        0.203703        0.6757525        0.55        
C_COOH        C        0.25        0.351852        0.6757525        0.55        
C_COOH        C        0.25        0.537037        0.6757525        0.55        
C_COOH        C        0.5        0.018519        0.6757525        0.55        
C_COOH        C        0.5        0.203703        0.6757525        0.55        
C_COOH        C        0.5        0.351852        0.6757525        0.55        
C_COOH        C        0.5        0.537037        0.6757525        0.55        
C_COOH        C        0.75        0.018519        0.6757525        0.55        
C_COOH        C        0.75        0.203703        0.6757525        0.55        
C_COOH        C        0.75        0.351852        0.6757525        0.55        
C_COOH        C        0.75        0.537037        0.6757525        0.55        
C_COOH        C        0.0        0.685186        0.6757525        0.55        
C_COOH        C        0.25        0.685186        0.6757525        0.55        
C_COOH        C        0.5        0.685186        0.6757525        0.55        
C_COOH        C        0.75        0.685186        0.6757525        0.55        
C_COOH        C        0.0        0.87037        0.6757525        0.55        
C_COOH        C        0.25        0.87037        0.6757525        0.55        
C_COOH        C        0.5        0.87037        0.6757525        0.55        
C_COOH        C        0.75        0.87037        0.6757525        0.55        
O1_COOH        O        -0.028252554259774253        0.02422921948170167        0.0235051282051282        -0.5        
O1_COOH        O        0.028791152053730455        0.2041789205742768        0.0235051282051282        -0.5        
O1_COOH        O        0.02665361350434545        0.36303822752140696        0.0235051282051282        -0.5        
O1_COOH        O        0.028119889874324178        0.5434000526154239        0.0235051282051282        -0.5        
O1_COOH        O        0.2744588250150753        0.03411903264758022        0.0235051282051282        -0.5        
O1_COOH        O        0.25174449111635383        0.23320964586911894        0.0235051282051282        -0.5        
O1_COOH        O        0.26464064674595245        0.377306746999142        0.0235051282051282        -0.5        
O1_COOH        O        0.23575279795794368        0.5627259608945747        0.0235051282051282        -0.5        
O1_COOH        O        0.5171199551530481        0.04228776616683186        0.0235051282051282        -0.5        
O1_COOH        O        0.4988226588000711        0.233239225425316        0.0235051282051282        -0.5        
O1_COOH        O        0.517934481913856        0.37497908409935465        0.0235051282051282        -0.5        
O1_COOH        O        0.47468558216331364        0.5511252698078378        0.0235051282051282        -0.5        
O1_COOH        O        0.7367846328580157        0.044782803145446214        0.0235051282051282        -0.5        
O1_COOH        O        0.7236202978675955        0.2155537940689272        0.0235051282051282        -0.5        
O1_COOH        O        0.7687092938903977        0.3743228522309154        0.0235051282051282        -0.5        
O1_COOH        O        0.7641299670225993        0.562794113137232        0.0235051282051282        -0.5        
O1_COOH        O        0.013394269214701987        0.7113541135893483        0.0235051282051282        -0.5        
O1_COOH        O        0.27697599471228385        0.6955257459568194        0.0235051282051282        -0.5        
O1_COOH        O        0.5268748701888696        0.6957996514133206        0.0235051282051282        -0.5        
O1_COOH        O        0.7787413166541836        0.6869882872034133        0.0235051282051282        -0.5        
O1_COOH        O        -0.02362040123494558        0.8872769564693928        0.0235051282051282        -0.5        
O1_COOH        O        0.2762399627212183        0.8825433646529754        0.0235051282051282        -0.5        
O1_COOH        O        0.48571136543063875        0.8960346966588397        0.0235051282051282        -0.5        
O1_COOH        O        0.7748277253502057        0.8853432729870471        0.0235051282051282        -0.5        
O1_COOH        O        -0.028286718019104807        0.024048092943429585        0.7036408974358974        -0.5        
O1_COOH        O        0.01505010898687151        0.22890481407205895        0.7036408974358974        -0.5        
O1_COOH        O        -0.019501686545321736        0.37360122132616896        0.7036408974358974        -0.5        
O1_COOH        O        -0.002356987292814325        0.5664987475090311        0.7036408974358974        -0.5        
O1_COOH        O        0.2375394990009721        0.045168844071349315        0.7036408974358974        -0.5        
O1_COOH        O        0.22563389319446986        0.21945520791083128        0.7036408974358974        -0.5        
O1_COOH        O        0.22120600212225106        0.35208392154068174        0.7036408974358974        -0.5        
O1_COOH        O        0.2339783320524753        0.5615994866857528        0.7036408974358974        -0.5        
O1_COOH        O        0.5286106485606591        0.02185761660850169        0.7036408974358974        -0.5        
O1_COOH        O        0.5199386517944351        0.22503057325796938        0.7036408974358974        -0.5        
O1_COOH        O        0.48857720803344873        0.3789874812923062        0.7036408974358974        -0.5        
O1_COOH        O        0.4726342784771571        0.5462342859379997        0.7036408974358974        -0.5        
O1_COOH        O        0.7778712909665618        0.02594586066075327        0.7036408974358974        -0.5        
O1_COOH        O        0.7598380180854893        0.23148509029938474        0.7036408974358974        -0.5        
O1_COOH        O        0.7773346048335082        0.36114629564789796        0.7036408974358974        -0.5        
O1_COOH        O        0.7720856984755194        0.5560046672567        0.7036408974358974        -0.5        
O1_COOH        O        -0.024258728003017233        0.7011119172576586        0.7036408974358974        -0.5        
O1_COOH        O        0.22388659048593185        0.6976428661120331        0.7036408974358974        -0.5        
O1_COOH        O        0.5178466433407154        0.7083845869752687        0.7036408974358974        -0.5        
O1_COOH        O        0.7404305116483513        0.7130667642708329        0.7036408974358974        -0.5        
O1_COOH        O        0.025380257562007326        0.8843328674082701        0.7036408974358974        -0.5        
O1_COOH        O        0.26974583522876755        0.8918858026295338        0.7036408974358974        -0.5        
O1_COOH        O        0.5209110742053774        0.8906924132420091        0.7036408974358974        -0.5        
O1_COOH        O        0.7755076957039657        0.8840859378744291        0.7036408974358974        -0.5        
O2_COOH        O        0.02750801852543138        0.012959261158596438        0.0        -0.58        
O2_COOH        O        -0.028032422724700475        0.20323962129613246        0.0        -0.58        
O2_COOH        O        -0.025951214439082756        0.34096056161679267        0.0        -0.58        
O2_COOH        O        -0.02737885022655578        0.5308416320479917        0.0        -0.58        
O2_COOH        O        0.22618573508651138        0.0033300728990632595        0.0        -0.58        
O2_COOH        O        0.24830148122166654        0.1749739387714825        0.0        -0.58        
O2_COOH        O        0.2357451762340169        0.32706805849954884        0.0        -0.58        
O2_COOH        O        0.26387174745705916        0.5120250168111677        0.0        -0.58        
O2_COOH        O        0.48333120470544083        -0.00462339109257379        0.0        -0.58        
O2_COOH        O        0.5011463148868104        0.17494513872132203        0.0        -0.58        
O2_COOH        O        0.48253814305799675        0.32933438081432354        0.0        -0.58        
O2_COOH        O        0.5246473104134        0.5233199964575254        0.0        -0.58        
O2_COOH        O        0.7628671043623009        -0.00705267669975444        0.0        -0.58        
O2_COOH        O        0.7756845214164131        0.19216450830145415        0.0        -0.58        
O2_COOH        O        0.73178374959649        0.32997331909324973        0.0        -0.58        
O2_COOH        O        0.7362423980838149        0.5119586605753268        0.0        -0.58        
O2_COOH        O        -0.013041291852936397        0.659707491162437        0.0        -0.58        
O2_COOH        O        0.22373490002127075        0.6751187359674021        0.0        -0.58        
O2_COOH        O        0.4738333596238213        0.6748520487042836        0.0        -0.58        
O2_COOH        O        0.7220160993693145        0.6834312082270583        0.0        -0.58        
O2_COOH        O        0.022997936001634883        0.8539085902636459        0.0        -0.58        
O2_COOH        O        0.22445153546100402        0.8585174383763007        0.0        -0.58        
O2_COOH        O        0.5139120881185859        0.8453816416147861        0.0        -0.58        
O2_COOH        O        0.7258265563319287        0.8557913156471848        0.0        -0.58        
O2_COOH        O        0.027541281971841296        0.013135614493747083        0.7271460256410257        -0.58        
O2_COOH        O        -0.014653495503947074        0.17916532591947548        0.7271460256410257        -0.58        
O2_COOH        O        0.018987761242163618        0.3306759329565403        0.7271460256410257        -0.58        
O2_COOH        O        0.002294873926045541        0.5083516539311704        0.7271460256410257        -0.58        
O2_COOH        O        0.26213213110452954        -0.007428544341443624        0.7271460256410257        -0.58        
O2_COOH        O        0.27372399009435683        0.1883659078899057        0.7271460256410257        -0.58        
O2_COOH        O        0.27803519355310424        0.35162619025625574        0.7271460256410257        -0.58        
O2_COOH        O        0.265599451102951        0.5131218051977955        0.7271460256410257        -0.58        
O2_COOH        O        0.4721433239842751        0.015268365502618059        0.7271460256410257        -0.58        
O2_COOH        O        0.4805867887947265        0.18293746939032954        0.7271460256410257        -0.58        
O2_COOH        O        0.511121768677582        0.32543161636948226        0.7271460256410257        -0.58        
O2_COOH        O        0.5266445563714554        0.5280820888921428        0.7271460256410257        -0.58        
O2_COOH        O        0.7228631973878741        0.01128785839194099        0.7271460256410257        -0.58        
O2_COOH        O        0.7404212418721206        0.17665304736195525        0.7271460256410257        -0.58        
O2_COOH        O        0.7233857403039814        0.3428026356659854        0.7271460256410257        -0.58        
O2_COOH        O        0.7284963229439158        0.5185691851085016        0.7271460256410257        -0.58        
O2_COOH        O        0.023619441030877295        0.6696797762819586        0.7271460256410257        -0.58        
O2_COOH        O        0.27542524637136656        0.6730574079927809        0.7271460256410257        -0.58        
O2_COOH        O        0.4826236668331209        0.6625987622440102        0.7271460256410257        -0.58        
O2_COOH        O        0.7593173049217306        0.6580399737323068        0.7271460256410257        -0.58        
O2_COOH        O        -0.024711415073360377        0.8567750941446487        0.7271460256410257        -0.58        
O2_COOH        O        0.23077452409156463        0.84942120040189        0.7271460256410257        -0.58        
O2_COOH        O        0.4796399924998219        0.8505831405605828        0.7271460256410257        -0.58        
O2_COOH        O        0.7251645051447692        0.8570155163779418        0.7271460256410257        -0.58        
H_COOH        H        0.04681914659256941        0.009056223624761486        0.03742051282051283        0.45        
H_COOH        H        -0.0477116920536916        0.20291432103920204        0.03742051282051283        0.45        
H_COOH        H        -0.04416943779339576        0.3333145742746287        0.03742051282051283        0.45        
H_COOH        H        -0.046599299804456394        0.526492371346656        0.03742051282051283        0.45        
H_COOH        H        0.20946768906862145        -0.00733282948983257        0.03742051282051283        0.45        
H_COOH        H        0.24710909022401936        0.15480561657409692        0.03742051282051283        0.45        
H_COOH        H        0.2257380313331624        0.30966928192532217        0.03742051282051283        0.45        
H_COOH        H        0.2736099658391142        0.49446615083446727        0.03742051282051283        0.45        
H_COOH        H        0.47162940799621783        -0.020869769498758118        0.03742051282051283        0.45        
H_COOH        H        0.5019510487342882        0.15475659836622094        0.03742051282051283        0.45        
H_COOH        H        0.47027960268420294        0.3135266036216614        0.03742051282051283        0.45        
H_COOH        H        0.5419501694856967        0.5136904111109392        0.03742051282051283        0.45        
H_COOH        H        0.7719000450651691        -0.025004457675322313        0.03742051282051283        0.45        
H_COOH        H        0.7937155214303526        0.18406427779280343        0.03742051282051283        0.45        
H_COOH        H        0.7189956113261884        0.3146140881642863        0.03742051282051283        0.45        
H_COOH        H        0.7265843119423308        0.4943532113172027        0.03742051282051283        0.45        
H_COOH        H        -0.022196515334415027        0.6418211157164188        0.03742051282051283        0.45        
H_COOH        H        0.20529632332347966        0.6680513339718912        0.03742051282051283        0.45        
H_COOH        H        0.4554639033533171        0.6675974274117084        0.03742051282051283        0.45        
H_COOH        H        0.7023708934306306        0.6821993125662672        0.03742051282051283        0.45        
H_COOH        H        0.0391429043132138        0.8423523819787605        0.03742051282051283        0.45        
H_COOH        H        0.20651604984341354        0.8501967250822007        0.03742051282051283        0.45        
H_COOH        H        0.5236786263769103        0.827839360678837        0.03742051282051283        0.45        
H_COOH        H        0.7088563603119465        0.8455568147387562        0.03742051282051283        0.45        
H_COOH        H        0.04687576158183882        0.009356380200665827        0.6897255128205128        0.45        
H_COOH        H        -0.024940515197726186        0.1619394335419266        0.6897255128205128        0.45        
H_COOH        H        0.03231751411828109        0.3158099497067294        0.6897255128205128        0.45        
H_COOH        H        0.0039059170567177937        0.488214020568985        0.6897255128205128        0.45        
H_COOH        H        0.27064910724624186        -0.025644191220629473        0.6897255128205128        0.45        
H_COOH        H        0.29037866155141173        0.17759899097650805        0.6897255128205128        0.45        
H_COOH        H        0.2977164080539043        0.35146766771941        0.6897255128205128        0.45        
H_COOH        H        0.2765505487891637        0.49633290456691376        0.6897255128205128        0.45        
H_COOH        H        0.4525874320334572        0.012986361111048924        0.6897255128205128        0.45        
H_COOH        H        0.4669583623258099        0.16835969016516694        0.6897255128205128        0.45        
H_COOH        H        0.5189294520651481        0.3068840277309129        0.6897255128205128        0.45        
H_COOH        H        0.545349518341201        0.5217955788305843        0.6897255128205128        0.45        
H_COOH        H        0.7038126696266349        0.0062114657926071485        0.6897255128205128        0.45        
H_COOH        H        0.7336967798844055        0.15766348985819065        0.6897255128205128        0.45        
H_COOH        H        0.7047020471500476        0.3364498177260532        0.6897255128205128        0.45        
H_COOH        H        0.7134003515216009        0.5056044440036412        0.6897255128205128        0.45        
H_COOH        H        0.04020071714859553        0.6587941259113239        0.6897255128205128        0.45        
H_COOH        H        0.2932742305998043        0.6645429163615882        0.6897255128205128        0.45        
H_COOH        H        0.47042516570107334        0.646742111551938        0.6897255128205128        0.45        
H_COOH        H        0.7658582220153325        0.6389829707975201        0.6897255128205128        0.45        
H_COOH        H        -0.04205927677996376        0.8472312235895718        0.6897255128205128        0.45        
H_COOH        H        0.21727789120700283        0.8347147630218981        0.6897255128205128        0.45        
H_COOH        H        0.4653468978546973        0.8366924062524108        0.6897255128205128        0.45        
H_COOH        H        0.7077295371801839        0.8476404265924802        0.6897255128205128        0.45        
