data_graphite_ortho

_audit_creation_method RASPA-1.0
_audit_creation_date 2012-2-3
_audit_author_name 'David Dubbeldam'

_cell_length_a    39.36    
_cell_length_b    38.339999999999996    
_cell_length_c    44.4    
_cell_angle_alpha 90
_cell_angle_beta  90
_cell_angle_gamma 90
_cell_volume      67002.37      

_symmetry_cell_setting          triclinic
_symmetry_space_group_name_Hall 'P 1'
_symmetry_space_group_name_H-M  'P 1'
_symmetry_Int_Tables_number     1

_symmetry_equiv_pos_as_xyz 'x,y,z'

loop_
_atom_site_label
_atom_site_type_symbol
_atom_site_fract_x
_atom_site_fract_y
_atom_site_fract_z
_atom_site_charge
C1        C        0.0        0.018519        0.27027        0        
C2        C        0.03125        0.074075        0.27027        0        
C3        C        0.0        0.092592        0.27027        0        
C4        C        0.03125        0.037037        0.27027        0        
C1        C        0.0        0.12963        0.27027        0        
C2        C        0.03125        0.185185        0.27027        0        
C3        C        0.0        0.203703        0.27027        0        
C4        C        0.03125        0.148148        0.27027        0        
C1        C        0.0        0.24074099999999998        0.27027        0        
C2        C        0.03125        0.296297        0.27027        0        
C3        C        0.0        0.314815        0.27027        0        
C4        C        0.03125        0.259259        0.27027        0        
C1        C        0.0        0.351852        0.27027        0        
C2        C        0.03125        0.407408        0.27027        0        
C3        C        0.0        0.425925        0.27027        0        
C4        C        0.03125        0.37037        0.27027        0        
C1        C        0.0        0.46296300000000007        0.27027        0        
C2        C        0.03125        0.518519        0.27027        0        
C3        C        0.0        0.537037        0.27027        0        
C4        C        0.03125        0.481481        0.27027        0        
C1        C        0.0        0.574075        0.27027        0        
C2        C        0.03125        0.62963        0.27027        0        
C3        C        0.0        0.648148        0.27027        0        
C4        C        0.03125        0.592592        0.27027        0        
C1        C        0.0625        0.018519        0.27027        0        
C2        C        0.09375        0.074075        0.27027        0        
C3        C        0.0625        0.092592        0.27027        0        
C4        C        0.09375        0.037037        0.27027        0        
C1        C        0.0625        0.12963        0.27027        0        
C2        C        0.09375        0.185185        0.27027        0        
C3        C        0.0625        0.203703        0.27027        0        
C4        C        0.09375        0.148148        0.27027        0        
C1        C        0.0625        0.24074099999999998        0.27027        0        
C2        C        0.09375        0.296297        0.27027        0        
C3        C        0.0625        0.314815        0.27027        0        
C4        C        0.09375        0.259259        0.27027        0        
C1        C        0.0625        0.351852        0.27027        0        
C2        C        0.09375        0.407408        0.27027        0        
C3        C        0.0625        0.425925        0.27027        0        
C4        C        0.09375        0.37037        0.27027        0        
C1        C        0.0625        0.46296300000000007        0.27027        0        
C2        C        0.09375        0.518519        0.27027        0        
C3        C        0.0625        0.537037        0.27027        0        
C4        C        0.09375        0.481481        0.27027        0        
C1        C        0.0625        0.574075        0.27027        0        
C2        C        0.09375        0.62963        0.27027        0        
C3        C        0.0625        0.648148        0.27027        0        
C4        C        0.09375        0.592592        0.27027        0        
C1        C        0.125        0.018519        0.27027        0        
C2        C        0.15625        0.074075        0.27027        0        
C3        C        0.125        0.092592        0.27027        0        
C4        C        0.15625        0.037037        0.27027        0        
C1        C        0.125        0.12963        0.27027        0        
C2        C        0.15625        0.185185        0.27027        0        
C3        C        0.125        0.203703        0.27027        0        
C4        C        0.15625        0.148148        0.27027        0        
C1        C        0.125        0.24074099999999998        0.27027        0        
C2        C        0.15625        0.296297        0.27027        0        
C3        C        0.125        0.314815        0.27027        0        
C4        C        0.15625        0.259259        0.27027        0        
C1        C        0.125        0.351852        0.27027        0        
C2        C        0.15625        0.407408        0.27027        0        
C3        C        0.125        0.425925        0.27027        0        
C4        C        0.15625        0.37037        0.27027        0        
C1        C        0.125        0.46296300000000007        0.27027        0        
C2        C        0.15625        0.518519        0.27027        0        
C3        C        0.125        0.537037        0.27027        0        
C4        C        0.15625        0.481481        0.27027        0        
C1        C        0.125        0.574075        0.27027        0        
C2        C        0.15625        0.62963        0.27027        0        
C3        C        0.125        0.648148        0.27027        0        
C4        C        0.15625        0.592592        0.27027        0        
C1        C        0.1875        0.018519        0.27027        0        
C2        C        0.21875        0.074075        0.27027        0        
C3        C        0.1875        0.092592        0.27027        0        
C4        C        0.21875        0.037037        0.27027        0        
C1        C        0.1875        0.12963        0.27027        0        
C2        C        0.21875        0.185185        0.27027        0        
C3        C        0.1875        0.203703        0.27027        0        
C4        C        0.21875        0.148148        0.27027        0        
C1        C        0.1875        0.24074099999999998        0.27027        0        
C2        C        0.21875        0.296297        0.27027        0        
C3        C        0.1875        0.314815        0.27027        0        
C4        C        0.21875        0.259259        0.27027        0        
C1        C        0.1875        0.351852        0.27027        0        
C2        C        0.21875        0.407408        0.27027        0        
C3        C        0.1875        0.425925        0.27027        0        
C4        C        0.21875        0.37037        0.27027        0        
C1        C        0.1875        0.46296300000000007        0.27027        0        
C2        C        0.21875        0.518519        0.27027        0        
C3        C        0.1875        0.537037        0.27027        0        
C4        C        0.21875        0.481481        0.27027        0        
C1        C        0.1875        0.574075        0.27027        0        
C2        C        0.21875        0.62963        0.27027        0        
C3        C        0.1875        0.648148        0.27027        0        
C4        C        0.21875        0.592592        0.27027        0        
C1        C        0.25        0.018519        0.27027        0        
C2        C        0.28125        0.074075        0.27027        0        
C3        C        0.25        0.092592        0.27027        0        
C4        C        0.28125        0.037037        0.27027        0        
C1        C        0.25        0.12963        0.27027        0        
C2        C        0.28125        0.185185        0.27027        0        
C3        C        0.25        0.203703        0.27027        0        
C4        C        0.28125        0.148148        0.27027        0        
C1        C        0.25        0.24074099999999998        0.27027        0        
C2        C        0.28125        0.296297        0.27027        0        
C3        C        0.25        0.314815        0.27027        0        
C4        C        0.28125        0.259259        0.27027        0        
C1        C        0.25        0.351852        0.27027        0        
C2        C        0.28125        0.407408        0.27027        0        
C3        C        0.25        0.425925        0.27027        0        
C4        C        0.28125        0.37037        0.27027        0        
C1        C        0.25        0.46296300000000007        0.27027        0        
C2        C        0.28125        0.518519        0.27027        0        
C3        C        0.25        0.537037        0.27027        0        
C4        C        0.28125        0.481481        0.27027        0        
C1        C        0.25        0.574075        0.27027        0        
C2        C        0.28125        0.62963        0.27027        0        
C3        C        0.25        0.648148        0.27027        0        
C4        C        0.28125        0.592592        0.27027        0        
C1        C        0.3125        0.018519        0.27027        0        
C2        C        0.34375        0.074075        0.27027        0        
C3        C        0.3125        0.092592        0.27027        0        
C4        C        0.34375        0.037037        0.27027        0        
C1        C        0.3125        0.12963        0.27027        0        
C2        C        0.34375        0.185185        0.27027        0        
C3        C        0.3125        0.203703        0.27027        0        
C4        C        0.34375        0.148148        0.27027        0        
C1        C        0.3125        0.24074099999999998        0.27027        0        
C2        C        0.34375        0.296297        0.27027        0        
C3        C        0.3125        0.314815        0.27027        0        
C4        C        0.34375        0.259259        0.27027        0        
C1        C        0.3125        0.351852        0.27027        0        
C2        C        0.34375        0.407408        0.27027        0        
C3        C        0.3125        0.425925        0.27027        0        
C4        C        0.34375        0.37037        0.27027        0        
C1        C        0.3125        0.46296300000000007        0.27027        0        
C2        C        0.34375        0.518519        0.27027        0        
C3        C        0.3125        0.537037        0.27027        0        
C4        C        0.34375        0.481481        0.27027        0        
C1        C        0.3125        0.574075        0.27027        0        
C2        C        0.34375        0.62963        0.27027        0        
C3        C        0.3125        0.648148        0.27027        0        
C4        C        0.34375        0.592592        0.27027        0        
C1        C        0.375        0.018519        0.27027        0        
C2        C        0.40625        0.074075        0.27027        0        
C3        C        0.375        0.092592        0.27027        0        
C4        C        0.40625        0.037037        0.27027        0        
C1        C        0.375        0.12963        0.27027        0        
C2        C        0.40625        0.185185        0.27027        0        
C3        C        0.375        0.203703        0.27027        0        
C4        C        0.40625        0.148148        0.27027        0        
C1        C        0.375        0.24074099999999998        0.27027        0        
C2        C        0.40625        0.296297        0.27027        0        
C3        C        0.375        0.314815        0.27027        0        
C4        C        0.40625        0.259259        0.27027        0        
C1        C        0.375        0.351852        0.27027        0        
C2        C        0.40625        0.407408        0.27027        0        
C3        C        0.375        0.425925        0.27027        0        
C4        C        0.40625        0.37037        0.27027        0        
C1        C        0.375        0.46296300000000007        0.27027        0        
C2        C        0.40625        0.518519        0.27027        0        
C3        C        0.375        0.537037        0.27027        0        
C4        C        0.40625        0.481481        0.27027        0        
C1        C        0.375        0.574075        0.27027        0        
C2        C        0.40625        0.62963        0.27027        0        
C3        C        0.375        0.648148        0.27027        0        
C4        C        0.40625        0.592592        0.27027        0        
C1        C        0.4375        0.018519        0.27027        0        
C2        C        0.46875        0.074075        0.27027        0        
C3        C        0.4375        0.092592        0.27027        0        
C4        C        0.46875        0.037037        0.27027        0        
C1        C        0.4375        0.12963        0.27027        0        
C2        C        0.46875        0.185185        0.27027        0        
C3        C        0.4375        0.203703        0.27027        0        
C4        C        0.46875        0.148148        0.27027        0        
C1        C        0.4375        0.24074099999999998        0.27027        0        
C2        C        0.46875        0.296297        0.27027        0        
C3        C        0.4375        0.314815        0.27027        0        
C4        C        0.46875        0.259259        0.27027        0        
C1        C        0.4375        0.351852        0.27027        0        
C2        C        0.46875        0.407408        0.27027        0        
C3        C        0.4375        0.425925        0.27027        0        
C4        C        0.46875        0.37037        0.27027        0        
C1        C        0.4375        0.46296300000000007        0.27027        0        
C2        C        0.46875        0.518519        0.27027        0        
C3        C        0.4375        0.537037        0.27027        0        
C4        C        0.46875        0.481481        0.27027        0        
C1        C        0.4375        0.574075        0.27027        0        
C2        C        0.46875        0.62963        0.27027        0        
C3        C        0.4375        0.648148        0.27027        0        
C4        C        0.46875        0.592592        0.27027        0        
C1        C        0.5        0.018519        0.27027        0        
C2        C        0.53125        0.074075        0.27027        0        
C3        C        0.5        0.092592        0.27027        0        
C4        C        0.53125        0.037037        0.27027        0        
C1        C        0.5        0.12963        0.27027        0        
C2        C        0.53125        0.185185        0.27027        0        
C3        C        0.5        0.203703        0.27027        0        
C4        C        0.53125        0.148148        0.27027        0        
C1        C        0.5        0.24074099999999998        0.27027        0        
C2        C        0.53125        0.296297        0.27027        0        
C3        C        0.5        0.314815        0.27027        0        
C4        C        0.53125        0.259259        0.27027        0        
C1        C        0.5        0.351852        0.27027        0        
C2        C        0.53125        0.407408        0.27027        0        
C3        C        0.5        0.425925        0.27027        0        
C4        C        0.53125        0.37037        0.27027        0        
C1        C        0.5        0.46296300000000007        0.27027        0        
C2        C        0.53125        0.518519        0.27027        0        
C3        C        0.5        0.537037        0.27027        0        
C4        C        0.53125        0.481481        0.27027        0        
C1        C        0.5        0.574075        0.27027        0        
C2        C        0.53125        0.62963        0.27027        0        
C3        C        0.5        0.648148        0.27027        0        
C4        C        0.53125        0.592592        0.27027        0        
C1        C        0.5625        0.018519        0.27027        0        
C2        C        0.59375        0.074075        0.27027        0        
C3        C        0.5625        0.092592        0.27027        0        
C4        C        0.59375        0.037037        0.27027        0        
C1        C        0.5625        0.12963        0.27027        0        
C2        C        0.59375        0.185185        0.27027        0        
C3        C        0.5625        0.203703        0.27027        0        
C4        C        0.59375        0.148148        0.27027        0        
C1        C        0.5625        0.24074099999999998        0.27027        0        
C2        C        0.59375        0.296297        0.27027        0        
C3        C        0.5625        0.314815        0.27027        0        
C4        C        0.59375        0.259259        0.27027        0        
C1        C        0.5625        0.351852        0.27027        0        
C2        C        0.59375        0.407408        0.27027        0        
C3        C        0.5625        0.425925        0.27027        0        
C4        C        0.59375        0.37037        0.27027        0        
C1        C        0.5625        0.46296300000000007        0.27027        0        
C2        C        0.59375        0.518519        0.27027        0        
C3        C        0.5625        0.537037        0.27027        0        
C4        C        0.59375        0.481481        0.27027        0        
C1        C        0.5625        0.574075        0.27027        0        
C2        C        0.59375        0.62963        0.27027        0        
C3        C        0.5625        0.648148        0.27027        0        
C4        C        0.59375        0.592592        0.27027        0        
C1        C        0.625        0.018519        0.27027        0        
C2        C        0.65625        0.074075        0.27027        0        
C3        C        0.625        0.092592        0.27027        0        
C4        C        0.65625        0.037037        0.27027        0        
C1        C        0.625        0.12963        0.27027        0        
C2        C        0.65625        0.185185        0.27027        0        
C3        C        0.625        0.203703        0.27027        0        
C4        C        0.65625        0.148148        0.27027        0        
C1        C        0.625        0.24074099999999998        0.27027        0        
C2        C        0.65625        0.296297        0.27027        0        
C3        C        0.625        0.314815        0.27027        0        
C4        C        0.65625        0.259259        0.27027        0        
C1        C        0.625        0.351852        0.27027        0        
C2        C        0.65625        0.407408        0.27027        0        
C3        C        0.625        0.425925        0.27027        0        
C4        C        0.65625        0.37037        0.27027        0        
C1        C        0.625        0.46296300000000007        0.27027        0        
C2        C        0.65625        0.518519        0.27027        0        
C3        C        0.625        0.537037        0.27027        0        
C4        C        0.65625        0.481481        0.27027        0        
C1        C        0.625        0.574075        0.27027        0        
C2        C        0.65625        0.62963        0.27027        0        
C3        C        0.625        0.648148        0.27027        0        
C4        C        0.65625        0.592592        0.27027        0        
C1        C        0.6875        0.018519        0.27027        0        
C2        C        0.71875        0.074075        0.27027        0        
C3        C        0.6875        0.092592        0.27027        0        
C4        C        0.71875        0.037037        0.27027        0        
C1        C        0.6875        0.12963        0.27027        0        
C2        C        0.71875        0.185185        0.27027        0        
C3        C        0.6875        0.203703        0.27027        0        
C4        C        0.71875        0.148148        0.27027        0        
C1        C        0.6875        0.24074099999999998        0.27027        0        
C2        C        0.71875        0.296297        0.27027        0        
C3        C        0.6875        0.314815        0.27027        0        
C4        C        0.71875        0.259259        0.27027        0        
C1        C        0.6875        0.351852        0.27027        0        
C2        C        0.71875        0.407408        0.27027        0        
C3        C        0.6875        0.425925        0.27027        0        
C4        C        0.71875        0.37037        0.27027        0        
C1        C        0.6875        0.46296300000000007        0.27027        0        
C2        C        0.71875        0.518519        0.27027        0        
C3        C        0.6875        0.537037        0.27027        0        
C4        C        0.71875        0.481481        0.27027        0        
C1        C        0.6875        0.574075        0.27027        0        
C2        C        0.71875        0.62963        0.27027        0        
C3        C        0.6875        0.648148        0.27027        0        
C4        C        0.71875        0.592592        0.27027        0        
C1        C        0.75        0.018519        0.27027        0        
C2        C        0.78125        0.074075        0.27027        0        
C3        C        0.75        0.092592        0.27027        0        
C4        C        0.78125        0.037037        0.27027        0        
C1        C        0.75        0.12963        0.27027        0        
C2        C        0.78125        0.185185        0.27027        0        
C3        C        0.75        0.203703        0.27027        0        
C4        C        0.78125        0.148148        0.27027        0        
C1        C        0.75        0.24074099999999998        0.27027        0        
C2        C        0.78125        0.296297        0.27027        0        
C3        C        0.75        0.314815        0.27027        0        
C4        C        0.78125        0.259259        0.27027        0        
C1        C        0.75        0.351852        0.27027        0        
C2        C        0.78125        0.407408        0.27027        0        
C3        C        0.75        0.425925        0.27027        0        
C4        C        0.78125        0.37037        0.27027        0        
C1        C        0.75        0.46296300000000007        0.27027        0        
C2        C        0.78125        0.518519        0.27027        0        
C3        C        0.75        0.537037        0.27027        0        
C4        C        0.78125        0.481481        0.27027        0        
C1        C        0.75        0.574075        0.27027        0        
C2        C        0.78125        0.62963        0.27027        0        
C3        C        0.75        0.648148        0.27027        0        
C4        C        0.78125        0.592592        0.27027        0        
C1        C        0.8125        0.018519        0.27027        0        
C2        C        0.84375        0.074075        0.27027        0        
C3        C        0.8125        0.092592        0.27027        0        
C4        C        0.84375        0.037037        0.27027        0        
C1        C        0.8125        0.12963        0.27027        0        
C2        C        0.84375        0.185185        0.27027        0        
C3        C        0.8125        0.203703        0.27027        0        
C4        C        0.84375        0.148148        0.27027        0        
C1        C        0.8125        0.24074099999999998        0.27027        0        
C2        C        0.84375        0.296297        0.27027        0        
C3        C        0.8125        0.314815        0.27027        0        
C4        C        0.84375        0.259259        0.27027        0        
C1        C        0.8125        0.351852        0.27027        0        
C2        C        0.84375        0.407408        0.27027        0        
C3        C        0.8125        0.425925        0.27027        0        
C4        C        0.84375        0.37037        0.27027        0        
C1        C        0.8125        0.46296300000000007        0.27027        0        
C2        C        0.84375        0.518519        0.27027        0        
C3        C        0.8125        0.537037        0.27027        0        
C4        C        0.84375        0.481481        0.27027        0        
C1        C        0.8125        0.574075        0.27027        0        
C2        C        0.84375        0.62963        0.27027        0        
C3        C        0.8125        0.648148        0.27027        0        
C4        C        0.84375        0.592592        0.27027        0        
C1        C        0.875        0.018519        0.27027        0        
C2        C        0.9062500000000001        0.074075        0.27027        0        
C3        C        0.875        0.092592        0.27027        0        
C4        C        0.9062500000000001        0.037037        0.27027        0        
C1        C        0.875        0.12963        0.27027        0        
C2        C        0.9062500000000001        0.185185        0.27027        0        
C3        C        0.875        0.203703        0.27027        0        
C4        C        0.9062500000000001        0.148148        0.27027        0        
C1        C        0.875        0.24074099999999998        0.27027        0        
C2        C        0.9062500000000001        0.296297        0.27027        0        
C3        C        0.875        0.314815        0.27027        0        
C4        C        0.9062500000000001        0.259259        0.27027        0        
C1        C        0.875        0.351852        0.27027        0        
C2        C        0.9062500000000001        0.407408        0.27027        0        
C3        C        0.875        0.425925        0.27027        0        
C4        C        0.9062500000000001        0.37037        0.27027        0        
C1        C        0.875        0.46296300000000007        0.27027        0        
C2        C        0.9062500000000001        0.518519        0.27027        0        
C3        C        0.875        0.537037        0.27027        0        
C4        C        0.9062500000000001        0.481481        0.27027        0        
C1        C        0.875        0.574075        0.27027        0        
C2        C        0.9062500000000001        0.62963        0.27027        0        
C3        C        0.875        0.648148        0.27027        0        
C4        C        0.9062500000000001        0.592592        0.27027        0        
C1        C        0.9375        0.018519        0.27027        0        
C2        C        0.9687500000000001        0.074075        0.27027        0        
C3        C        0.9375        0.092592        0.27027        0        
C4        C        0.9687500000000001        0.037037        0.27027        0        
C1        C        0.9375        0.12963        0.27027        0        
C2        C        0.9687500000000001        0.185185        0.27027        0        
C3        C        0.9375        0.203703        0.27027        0        
C4        C        0.9687500000000001        0.148148        0.27027        0        
C1        C        0.9375        0.24074099999999998        0.27027        0        
C2        C        0.9687500000000001        0.296297        0.27027        0        
C3        C        0.9375        0.314815        0.27027        0        
C4        C        0.9687500000000001        0.259259        0.27027        0        
C1        C        0.9375        0.351852        0.27027        0        
C2        C        0.9687500000000001        0.407408        0.27027        0        
C3        C        0.9375        0.425925        0.27027        0        
C4        C        0.9687500000000001        0.37037        0.27027        0        
C1        C        0.9375        0.46296300000000007        0.27027        0        
C2        C        0.9687500000000001        0.518519        0.27027        0        
C3        C        0.9375        0.537037        0.27027        0        
C4        C        0.9687500000000001        0.481481        0.27027        0        
C1        C        0.9375        0.574075        0.27027        0        
C2        C        0.9687500000000001        0.62963        0.27027        0        
C3        C        0.9375        0.648148        0.27027        0        
C4        C        0.9687500000000001        0.592592        0.27027        0        
C1        C        0.0        0.685186        0.27027        0        
C1        C        0.0625        0.685186        0.27027        0        
C1        C        0.125        0.685186        0.27027        0        
C1        C        0.1875        0.685186        0.27027        0        
C1        C        0.25        0.685186        0.27027        0        
C1        C        0.3125        0.685186        0.27027        0        
C1        C        0.375        0.685186        0.27027        0        
C1        C        0.4375        0.685186        0.27027        0        
C1        C        0.5        0.685186        0.27027        0        
C1        C        0.5625        0.685186        0.27027        0        
C1        C        0.625        0.685186        0.27027        0        
C1        C        0.6875        0.685186        0.27027        0        
C1        C        0.75        0.685186        0.27027        0        
C1        C        0.8125        0.685186        0.27027        0        
C1        C        0.875        0.685186        0.27027        0        
C1        C        0.9375        0.685186        0.27027        0        
C2        C        0.03125        0.740741        0.27027        0        
C2        C        0.09375        0.740741        0.27027        0        
C2        C        0.15625        0.740741        0.27027        0        
C2        C        0.21875        0.740741        0.27027        0        
C2        C        0.28125        0.740741        0.27027        0        
C2        C        0.34375        0.740741        0.27027        0        
C2        C        0.40625        0.740741        0.27027        0        
C2        C        0.46875        0.740741        0.27027        0        
C2        C        0.53125        0.740741        0.27027        0        
C2        C        0.59375        0.740741        0.27027        0        
C2        C        0.65625        0.740741        0.27027        0        
C2        C        0.71875        0.740741        0.27027        0        
C2        C        0.78125        0.740741        0.27027        0        
C2        C        0.84375        0.740741        0.27027        0        
C2        C        0.9062500000000001        0.740741        0.27027        0        
C2        C        0.9687500000000001        0.740741        0.27027        0        
C3        C        0.0        0.759259        0.27027        0        
C3        C        0.0625        0.759259        0.27027        0        
C3        C        0.125        0.759259        0.27027        0        
C3        C        0.1875        0.759259        0.27027        0        
C3        C        0.25        0.759259        0.27027        0        
C3        C        0.3125        0.759259        0.27027        0        
C3        C        0.375        0.759259        0.27027        0        
C3        C        0.4375        0.759259        0.27027        0        
C3        C        0.5        0.759259        0.27027        0        
C3        C        0.5625        0.759259        0.27027        0        
C3        C        0.625        0.759259        0.27027        0        
C3        C        0.6875        0.759259        0.27027        0        
C3        C        0.75        0.759259        0.27027        0        
C3        C        0.8125        0.759259        0.27027        0        
C3        C        0.875        0.759259        0.27027        0        
C3        C        0.9375        0.759259        0.27027        0        
C4        C        0.03125        0.703703        0.27027        0        
C4        C        0.09375        0.703703        0.27027        0        
C4        C        0.15625        0.703703        0.27027        0        
C4        C        0.21875        0.703703        0.27027        0        
C4        C        0.28125        0.703703        0.27027        0        
C4        C        0.34375        0.703703        0.27027        0        
C4        C        0.40625        0.703703        0.27027        0        
C4        C        0.46875        0.703703        0.27027        0        
C4        C        0.53125        0.703703        0.27027        0        
C4        C        0.59375        0.703703        0.27027        0        
C4        C        0.65625        0.703703        0.27027        0        
C4        C        0.71875        0.703703        0.27027        0        
C4        C        0.78125        0.703703        0.27027        0        
C4        C        0.84375        0.703703        0.27027        0        
C4        C        0.9062500000000001        0.703703        0.27027        0        
C4        C        0.9687500000000001        0.703703        0.27027        0        
C1        C        0.0        0.796297        0.27027        0        
C1        C        0.0625        0.796297        0.27027        0        
C1        C        0.125        0.796297        0.27027        0        
C1        C        0.1875        0.796297        0.27027        0        
C1        C        0.25        0.796297        0.27027        0        
C1        C        0.3125        0.796297        0.27027        0        
C1        C        0.375        0.796297        0.27027        0        
C1        C        0.4375        0.796297        0.27027        0        
C1        C        0.5        0.796297        0.27027        0        
C1        C        0.5625        0.796297        0.27027        0        
C1        C        0.625        0.796297        0.27027        0        
C1        C        0.6875        0.796297        0.27027        0        
C1        C        0.75        0.796297        0.27027        0        
C1        C        0.8125        0.796297        0.27027        0        
C1        C        0.875        0.796297        0.27027        0        
C1        C        0.9375        0.796297        0.27027        0        
C2        C        0.03125        0.851852        0.27027        0        
C2        C        0.09375        0.851852        0.27027        0        
C2        C        0.15625        0.851852        0.27027        0        
C2        C        0.21875        0.851852        0.27027        0        
C2        C        0.28125        0.851852        0.27027        0        
C2        C        0.34375        0.851852        0.27027        0        
C2        C        0.40625        0.851852        0.27027        0        
C2        C        0.46875        0.851852        0.27027        0        
C2        C        0.53125        0.851852        0.27027        0        
C2        C        0.59375        0.851852        0.27027        0        
C2        C        0.65625        0.851852        0.27027        0        
C2        C        0.71875        0.851852        0.27027        0        
C2        C        0.78125        0.851852        0.27027        0        
C2        C        0.84375        0.851852        0.27027        0        
C2        C        0.9062500000000001        0.851852        0.27027        0        
C2        C        0.9687500000000001        0.851852        0.27027        0        
C3        C        0.0        0.87037        0.27027        0        
C3        C        0.0625        0.87037        0.27027        0        
C3        C        0.125        0.87037        0.27027        0        
C3        C        0.1875        0.87037        0.27027        0        
C3        C        0.25        0.87037        0.27027        0        
C3        C        0.3125        0.87037        0.27027        0        
C3        C        0.375        0.87037        0.27027        0        
C3        C        0.4375        0.87037        0.27027        0        
C3        C        0.5        0.87037        0.27027        0        
C3        C        0.5625        0.87037        0.27027        0        
C3        C        0.625        0.87037        0.27027        0        
C3        C        0.6875        0.87037        0.27027        0        
C3        C        0.75        0.87037        0.27027        0        
C3        C        0.8125        0.87037        0.27027        0        
C3        C        0.875        0.87037        0.27027        0        
C3        C        0.9375        0.87037        0.27027        0        
C4        C        0.03125        0.814814        0.27027        0        
C4        C        0.09375        0.814814        0.27027        0        
C4        C        0.15625        0.814814        0.27027        0        
C4        C        0.21875        0.814814        0.27027        0        
C4        C        0.28125        0.814814        0.27027        0        
C4        C        0.34375        0.814814        0.27027        0        
C4        C        0.40625        0.814814        0.27027        0        
C4        C        0.46875        0.814814        0.27027        0        
C4        C        0.53125        0.814814        0.27027        0        
C4        C        0.59375        0.814814        0.27027        0        
C4        C        0.65625        0.814814        0.27027        0        
C4        C        0.71875        0.814814        0.27027        0        
C4        C        0.78125        0.814814        0.27027        0        
C4        C        0.84375        0.814814        0.27027        0        
C4        C        0.9062500000000001        0.814814        0.27027        0        
C4        C        0.9687500000000001        0.814814        0.27027        0        
C1        C        0.0        0.907408        0.27027        0        
C1        C        0.0625        0.907408        0.27027        0        
C1        C        0.125        0.907408        0.27027        0        
C1        C        0.1875        0.907408        0.27027        0        
C1        C        0.25        0.907408        0.27027        0        
C1        C        0.3125        0.907408        0.27027        0        
C1        C        0.375        0.907408        0.27027        0        
C1        C        0.4375        0.907408        0.27027        0        
C1        C        0.5        0.907408        0.27027        0        
C1        C        0.5625        0.907408        0.27027        0        
C1        C        0.625        0.907408        0.27027        0        
C1        C        0.6875        0.907408        0.27027        0        
C1        C        0.75        0.907408        0.27027        0        
C1        C        0.8125        0.907408        0.27027        0        
C1        C        0.875        0.907408        0.27027        0        
C1        C        0.9375        0.907408        0.27027        0        
C2        C        0.03125        0.962963        0.27027        0        
C2        C        0.09375        0.962963        0.27027        0        
C2        C        0.15625        0.962963        0.27027        0        
C2        C        0.21875        0.962963        0.27027        0        
C2        C        0.28125        0.962963        0.27027        0        
C2        C        0.34375        0.962963        0.27027        0        
C2        C        0.40625        0.962963        0.27027        0        
C2        C        0.46875        0.962963        0.27027        0        
C2        C        0.53125        0.962963        0.27027        0        
C2        C        0.59375        0.962963        0.27027        0        
C2        C        0.65625        0.962963        0.27027        0        
C2        C        0.71875        0.962963        0.27027        0        
C2        C        0.78125        0.962963        0.27027        0        
C2        C        0.84375        0.962963        0.27027        0        
C2        C        0.9062500000000001        0.962963        0.27027        0        
C2        C        0.9687500000000001        0.962963        0.27027        0        
C3        C        0.0        0.9814809999999999        0.27027        0        
C3        C        0.0625        0.9814809999999999        0.27027        0        
C3        C        0.125        0.9814809999999999        0.27027        0        
C3        C        0.1875        0.9814809999999999        0.27027        0        
C3        C        0.25        0.9814809999999999        0.27027        0        
C3        C        0.3125        0.9814809999999999        0.27027        0        
C3        C        0.375        0.9814809999999999        0.27027        0        
C3        C        0.4375        0.9814809999999999        0.27027        0        
C3        C        0.5        0.9814809999999999        0.27027        0        
C3        C        0.5625        0.9814809999999999        0.27027        0        
C3        C        0.625        0.9814809999999999        0.27027        0        
C3        C        0.6875        0.9814809999999999        0.27027        0        
C3        C        0.75        0.9814809999999999        0.27027        0        
C3        C        0.8125        0.9814809999999999        0.27027        0        
C3        C        0.875        0.9814809999999999        0.27027        0        
C3        C        0.9375        0.9814809999999999        0.27027        0        
C4        C        0.03125        0.925925        0.27027        0        
C4        C        0.09375        0.925925        0.27027        0        
C4        C        0.15625        0.925925        0.27027        0        
C4        C        0.21875        0.925925        0.27027        0        
C4        C        0.28125        0.925925        0.27027        0        
C4        C        0.34375        0.925925        0.27027        0        
C4        C        0.40625        0.925925        0.27027        0        
C4        C        0.46875        0.925925        0.27027        0        
C4        C        0.53125        0.925925        0.27027        0        
C4        C        0.59375        0.925925        0.27027        0        
C4        C        0.65625        0.925925        0.27027        0        
C4        C        0.71875        0.925925        0.27027        0        
C4        C        0.78125        0.925925        0.27027        0        
C4        C        0.84375        0.925925        0.27027        0        
C4        C        0.9062500000000001        0.925925        0.27027        0        
C4        C        0.9687500000000001        0.925925        0.27027        0        
C1        C        0.0        0.018519        0.345721        0        
C2        C        0.03125        0.074075        0.345721        0        
C3        C        0.0        0.092592        0.345721        0        
C4        C        0.03125        0.037037        0.345721        0        
C1        C        0.0        0.12963        0.345721        0        
C2        C        0.03125        0.185185        0.345721        0        
C3        C        0.0        0.203703        0.345721        0        
C4        C        0.03125        0.148148        0.345721        0        
C1        C        0.0        0.24074099999999998        0.345721        0        
C2        C        0.03125        0.296297        0.345721        0        
C3        C        0.0        0.314815        0.345721        0        
C4        C        0.03125        0.259259        0.345721        0        
C1        C        0.0        0.351852        0.345721        0        
C2        C        0.03125        0.407408        0.345721        0        
C3        C        0.0        0.425925        0.345721        0        
C4        C        0.03125        0.37037        0.345721        0        
C1        C        0.0        0.46296300000000007        0.345721        0        
C2        C        0.03125        0.518519        0.345721        0        
C3        C        0.0        0.537037        0.345721        0        
C4        C        0.03125        0.481481        0.345721        0        
C1        C        0.0        0.574075        0.345721        0        
C2        C        0.03125        0.62963        0.345721        0        
C3        C        0.0        0.648148        0.345721        0        
C4        C        0.03125        0.592592        0.345721        0        
C1        C        0.0625        0.018519        0.345721        0        
C2        C        0.09375        0.074075        0.345721        0        
C3        C        0.0625        0.092592        0.345721        0        
C4        C        0.09375        0.037037        0.345721        0        
C1        C        0.0625        0.12963        0.345721        0        
C2        C        0.09375        0.185185        0.345721        0        
C3        C        0.0625        0.203703        0.345721        0        
C4        C        0.09375        0.148148        0.345721        0        
C1        C        0.0625        0.24074099999999998        0.345721        0        
C2        C        0.09375        0.296297        0.345721        0        
C3        C        0.0625        0.314815        0.345721        0        
C4        C        0.09375        0.259259        0.345721        0        
C1        C        0.0625        0.351852        0.345721        0        
C2        C        0.09375        0.407408        0.345721        0        
C3        C        0.0625        0.425925        0.345721        0        
C4        C        0.09375        0.37037        0.345721        0        
C1        C        0.0625        0.46296300000000007        0.345721        0        
C2        C        0.09375        0.518519        0.345721        0        
C3        C        0.0625        0.537037        0.345721        0        
C4        C        0.09375        0.481481        0.345721        0        
C1        C        0.0625        0.574075        0.345721        0        
C2        C        0.09375        0.62963        0.345721        0        
C3        C        0.0625        0.648148        0.345721        0        
C4        C        0.09375        0.592592        0.345721        0        
C1        C        0.125        0.018519        0.345721        0        
C2        C        0.15625        0.074075        0.345721        0        
C3        C        0.125        0.092592        0.345721        0        
C4        C        0.15625        0.037037        0.345721        0        
C1        C        0.125        0.12963        0.345721        0        
C2        C        0.15625        0.185185        0.345721        0        
C3        C        0.125        0.203703        0.345721        0        
C4        C        0.15625        0.148148        0.345721        0        
C1        C        0.125        0.24074099999999998        0.345721        0        
C2        C        0.15625        0.296297        0.345721        0        
C3        C        0.125        0.314815        0.345721        0        
C4        C        0.15625        0.259259        0.345721        0        
C1        C        0.125        0.351852        0.345721        0        
C2        C        0.15625        0.407408        0.345721        0        
C3        C        0.125        0.425925        0.345721        0        
C4        C        0.15625        0.37037        0.345721        0        
C1        C        0.125        0.46296300000000007        0.345721        0        
C2        C        0.15625        0.518519        0.345721        0        
C3        C        0.125        0.537037        0.345721        0        
C4        C        0.15625        0.481481        0.345721        0        
C1        C        0.125        0.574075        0.345721        0        
C2        C        0.15625        0.62963        0.345721        0        
C3        C        0.125        0.648148        0.345721        0        
C4        C        0.15625        0.592592        0.345721        0        
C1        C        0.1875        0.018519        0.345721        0        
C2        C        0.21875        0.074075        0.345721        0        
C3        C        0.1875        0.092592        0.345721        0        
C4        C        0.21875        0.037037        0.345721        0        
C1        C        0.1875        0.12963        0.345721        0        
C2        C        0.21875        0.185185        0.345721        0        
C3        C        0.1875        0.203703        0.345721        0        
C4        C        0.21875        0.148148        0.345721        0        
C1        C        0.1875        0.24074099999999998        0.345721        0        
C2        C        0.21875        0.296297        0.345721        0        
C3        C        0.1875        0.314815        0.345721        0        
C4        C        0.21875        0.259259        0.345721        0        
C1        C        0.1875        0.351852        0.345721        0        
C2        C        0.21875        0.407408        0.345721        0        
C3        C        0.1875        0.425925        0.345721        0        
C4        C        0.21875        0.37037        0.345721        0        
C1        C        0.1875        0.46296300000000007        0.345721        0        
C2        C        0.21875        0.518519        0.345721        0        
C3        C        0.1875        0.537037        0.345721        0        
C4        C        0.21875        0.481481        0.345721        0        
C1        C        0.1875        0.574075        0.345721        0        
C2        C        0.21875        0.62963        0.345721        0        
C3        C        0.1875        0.648148        0.345721        0        
C4        C        0.21875        0.592592        0.345721        0        
C1        C        0.25        0.018519        0.345721        0        
C2        C        0.28125        0.074075        0.345721        0        
C3        C        0.25        0.092592        0.345721        0        
C4        C        0.28125        0.037037        0.345721        0        
C1        C        0.25        0.12963        0.345721        0        
C2        C        0.28125        0.185185        0.345721        0        
C3        C        0.25        0.203703        0.345721        0        
C4        C        0.28125        0.148148        0.345721        0        
C1        C        0.25        0.24074099999999998        0.345721        0        
C2        C        0.28125        0.296297        0.345721        0        
C3        C        0.25        0.314815        0.345721        0        
C4        C        0.28125        0.259259        0.345721        0        
C1        C        0.25        0.351852        0.345721        0        
C2        C        0.28125        0.407408        0.345721        0        
C3        C        0.25        0.425925        0.345721        0        
C4        C        0.28125        0.37037        0.345721        0        
C1        C        0.25        0.46296300000000007        0.345721        0        
C2        C        0.28125        0.518519        0.345721        0        
C3        C        0.25        0.537037        0.345721        0        
C4        C        0.28125        0.481481        0.345721        0        
C1        C        0.25        0.574075        0.345721        0        
C2        C        0.28125        0.62963        0.345721        0        
C3        C        0.25        0.648148        0.345721        0        
C4        C        0.28125        0.592592        0.345721        0        
C1        C        0.3125        0.018519        0.345721        0        
C2        C        0.34375        0.074075        0.345721        0        
C3        C        0.3125        0.092592        0.345721        0        
C4        C        0.34375        0.037037        0.345721        0        
C1        C        0.3125        0.12963        0.345721        0        
C2        C        0.34375        0.185185        0.345721        0        
C3        C        0.3125        0.203703        0.345721        0        
C4        C        0.34375        0.148148        0.345721        0        
C1        C        0.3125        0.24074099999999998        0.345721        0        
C2        C        0.34375        0.296297        0.345721        0        
C3        C        0.3125        0.314815        0.345721        0        
C4        C        0.34375        0.259259        0.345721        0        
C1        C        0.3125        0.351852        0.345721        0        
C2        C        0.34375        0.407408        0.345721        0        
C3        C        0.3125        0.425925        0.345721        0        
C4        C        0.34375        0.37037        0.345721        0        
C1        C        0.3125        0.46296300000000007        0.345721        0        
C2        C        0.34375        0.518519        0.345721        0        
C3        C        0.3125        0.537037        0.345721        0        
C4        C        0.34375        0.481481        0.345721        0        
C1        C        0.3125        0.574075        0.345721        0        
C2        C        0.34375        0.62963        0.345721        0        
C3        C        0.3125        0.648148        0.345721        0        
C4        C        0.34375        0.592592        0.345721        0        
C1        C        0.375        0.018519        0.345721        0        
C2        C        0.40625        0.074075        0.345721        0        
C3        C        0.375        0.092592        0.345721        0        
C4        C        0.40625        0.037037        0.345721        0        
C1        C        0.375        0.12963        0.345721        0        
C2        C        0.40625        0.185185        0.345721        0        
C3        C        0.375        0.203703        0.345721        0        
C4        C        0.40625        0.148148        0.345721        0        
C1        C        0.375        0.24074099999999998        0.345721        0        
C2        C        0.40625        0.296297        0.345721        0        
C3        C        0.375        0.314815        0.345721        0        
C4        C        0.40625        0.259259        0.345721        0        
C1        C        0.375        0.351852        0.345721        0        
C2        C        0.40625        0.407408        0.345721        0        
C3        C        0.375        0.425925        0.345721        0        
C4        C        0.40625        0.37037        0.345721        0        
C1        C        0.375        0.46296300000000007        0.345721        0        
C2        C        0.40625        0.518519        0.345721        0        
C3        C        0.375        0.537037        0.345721        0        
C4        C        0.40625        0.481481        0.345721        0        
C1        C        0.375        0.574075        0.345721        0        
C2        C        0.40625        0.62963        0.345721        0        
C3        C        0.375        0.648148        0.345721        0        
C4        C        0.40625        0.592592        0.345721        0        
C1        C        0.4375        0.018519        0.345721        0        
C2        C        0.46875        0.074075        0.345721        0        
C3        C        0.4375        0.092592        0.345721        0        
C4        C        0.46875        0.037037        0.345721        0        
C1        C        0.4375        0.12963        0.345721        0        
C2        C        0.46875        0.185185        0.345721        0        
C3        C        0.4375        0.203703        0.345721        0        
C4        C        0.46875        0.148148        0.345721        0        
C1        C        0.4375        0.24074099999999998        0.345721        0        
C2        C        0.46875        0.296297        0.345721        0        
C3        C        0.4375        0.314815        0.345721        0        
C4        C        0.46875        0.259259        0.345721        0        
C1        C        0.4375        0.351852        0.345721        0        
C2        C        0.46875        0.407408        0.345721        0        
C3        C        0.4375        0.425925        0.345721        0        
C4        C        0.46875        0.37037        0.345721        0        
C1        C        0.4375        0.46296300000000007        0.345721        0        
C2        C        0.46875        0.518519        0.345721        0        
C3        C        0.4375        0.537037        0.345721        0        
C4        C        0.46875        0.481481        0.345721        0        
C1        C        0.4375        0.574075        0.345721        0        
C2        C        0.46875        0.62963        0.345721        0        
C3        C        0.4375        0.648148        0.345721        0        
C4        C        0.46875        0.592592        0.345721        0        
C1        C        0.5        0.018519        0.345721        0        
C2        C        0.53125        0.074075        0.345721        0        
C3        C        0.5        0.092592        0.345721        0        
C4        C        0.53125        0.037037        0.345721        0        
C1        C        0.5        0.12963        0.345721        0        
C2        C        0.53125        0.185185        0.345721        0        
C3        C        0.5        0.203703        0.345721        0        
C4        C        0.53125        0.148148        0.345721        0        
C1        C        0.5        0.24074099999999998        0.345721        0        
C2        C        0.53125        0.296297        0.345721        0        
C3        C        0.5        0.314815        0.345721        0        
C4        C        0.53125        0.259259        0.345721        0        
C1        C        0.5        0.351852        0.345721        0        
C2        C        0.53125        0.407408        0.345721        0        
C3        C        0.5        0.425925        0.345721        0        
C4        C        0.53125        0.37037        0.345721        0        
C1        C        0.5        0.46296300000000007        0.345721        0        
C2        C        0.53125        0.518519        0.345721        0        
C3        C        0.5        0.537037        0.345721        0        
C4        C        0.53125        0.481481        0.345721        0        
C1        C        0.5        0.574075        0.345721        0        
C2        C        0.53125        0.62963        0.345721        0        
C3        C        0.5        0.648148        0.345721        0        
C4        C        0.53125        0.592592        0.345721        0        
C1        C        0.5625        0.018519        0.345721        0        
C2        C        0.59375        0.074075        0.345721        0        
C3        C        0.5625        0.092592        0.345721        0        
C4        C        0.59375        0.037037        0.345721        0        
C1        C        0.5625        0.12963        0.345721        0        
C2        C        0.59375        0.185185        0.345721        0        
C3        C        0.5625        0.203703        0.345721        0        
C4        C        0.59375        0.148148        0.345721        0        
C1        C        0.5625        0.24074099999999998        0.345721        0        
C2        C        0.59375        0.296297        0.345721        0        
C3        C        0.5625        0.314815        0.345721        0        
C4        C        0.59375        0.259259        0.345721        0        
C1        C        0.5625        0.351852        0.345721        0        
C2        C        0.59375        0.407408        0.345721        0        
C3        C        0.5625        0.425925        0.345721        0        
C4        C        0.59375        0.37037        0.345721        0        
C1        C        0.5625        0.46296300000000007        0.345721        0        
C2        C        0.59375        0.518519        0.345721        0        
C3        C        0.5625        0.537037        0.345721        0        
C4        C        0.59375        0.481481        0.345721        0        
C1        C        0.5625        0.574075        0.345721        0        
C2        C        0.59375        0.62963        0.345721        0        
C3        C        0.5625        0.648148        0.345721        0        
C4        C        0.59375        0.592592        0.345721        0        
C1        C        0.625        0.018519        0.345721        0        
C2        C        0.65625        0.074075        0.345721        0        
C3        C        0.625        0.092592        0.345721        0        
C4        C        0.65625        0.037037        0.345721        0        
C1        C        0.625        0.12963        0.345721        0        
C2        C        0.65625        0.185185        0.345721        0        
C3        C        0.625        0.203703        0.345721        0        
C4        C        0.65625        0.148148        0.345721        0        
C1        C        0.625        0.24074099999999998        0.345721        0        
C2        C        0.65625        0.296297        0.345721        0        
C3        C        0.625        0.314815        0.345721        0        
C4        C        0.65625        0.259259        0.345721        0        
C1        C        0.625        0.351852        0.345721        0        
C2        C        0.65625        0.407408        0.345721        0        
C3        C        0.625        0.425925        0.345721        0        
C4        C        0.65625        0.37037        0.345721        0        
C1        C        0.625        0.46296300000000007        0.345721        0        
C2        C        0.65625        0.518519        0.345721        0        
C3        C        0.625        0.537037        0.345721        0        
C4        C        0.65625        0.481481        0.345721        0        
C1        C        0.625        0.574075        0.345721        0        
C2        C        0.65625        0.62963        0.345721        0        
C3        C        0.625        0.648148        0.345721        0        
C4        C        0.65625        0.592592        0.345721        0        
C1        C        0.6875        0.018519        0.345721        0        
C2        C        0.71875        0.074075        0.345721        0        
C3        C        0.6875        0.092592        0.345721        0        
C4        C        0.71875        0.037037        0.345721        0        
C1        C        0.6875        0.12963        0.345721        0        
C2        C        0.71875        0.185185        0.345721        0        
C3        C        0.6875        0.203703        0.345721        0        
C4        C        0.71875        0.148148        0.345721        0        
C1        C        0.6875        0.24074099999999998        0.345721        0        
C2        C        0.71875        0.296297        0.345721        0        
C3        C        0.6875        0.314815        0.345721        0        
C4        C        0.71875        0.259259        0.345721        0        
C1        C        0.6875        0.351852        0.345721        0        
C2        C        0.71875        0.407408        0.345721        0        
C3        C        0.6875        0.425925        0.345721        0        
C4        C        0.71875        0.37037        0.345721        0        
C1        C        0.6875        0.46296300000000007        0.345721        0        
C2        C        0.71875        0.518519        0.345721        0        
C3        C        0.6875        0.537037        0.345721        0        
C4        C        0.71875        0.481481        0.345721        0        
C1        C        0.6875        0.574075        0.345721        0        
C2        C        0.71875        0.62963        0.345721        0        
C3        C        0.6875        0.648148        0.345721        0        
C4        C        0.71875        0.592592        0.345721        0        
C1        C        0.75        0.018519        0.345721        0        
C2        C        0.78125        0.074075        0.345721        0        
C3        C        0.75        0.092592        0.345721        0        
C4        C        0.78125        0.037037        0.345721        0        
C1        C        0.75        0.12963        0.345721        0        
C2        C        0.78125        0.185185        0.345721        0        
C3        C        0.75        0.203703        0.345721        0        
C4        C        0.78125        0.148148        0.345721        0        
C1        C        0.75        0.24074099999999998        0.345721        0        
C2        C        0.78125        0.296297        0.345721        0        
C3        C        0.75        0.314815        0.345721        0        
C4        C        0.78125        0.259259        0.345721        0        
C1        C        0.75        0.351852        0.345721        0        
C2        C        0.78125        0.407408        0.345721        0        
C3        C        0.75        0.425925        0.345721        0        
C4        C        0.78125        0.37037        0.345721        0        
C1        C        0.75        0.46296300000000007        0.345721        0        
C2        C        0.78125        0.518519        0.345721        0        
C3        C        0.75        0.537037        0.345721        0        
C4        C        0.78125        0.481481        0.345721        0        
C1        C        0.75        0.574075        0.345721        0        
C2        C        0.78125        0.62963        0.345721        0        
C3        C        0.75        0.648148        0.345721        0        
C4        C        0.78125        0.592592        0.345721        0        
C1        C        0.8125        0.018519        0.345721        0        
C2        C        0.84375        0.074075        0.345721        0        
C3        C        0.8125        0.092592        0.345721        0        
C4        C        0.84375        0.037037        0.345721        0        
C1        C        0.8125        0.12963        0.345721        0        
C2        C        0.84375        0.185185        0.345721        0        
C3        C        0.8125        0.203703        0.345721        0        
C4        C        0.84375        0.148148        0.345721        0        
C1        C        0.8125        0.24074099999999998        0.345721        0        
C2        C        0.84375        0.296297        0.345721        0        
C3        C        0.8125        0.314815        0.345721        0        
C4        C        0.84375        0.259259        0.345721        0        
C1        C        0.8125        0.351852        0.345721        0        
C2        C        0.84375        0.407408        0.345721        0        
C3        C        0.8125        0.425925        0.345721        0        
C4        C        0.84375        0.37037        0.345721        0        
C1        C        0.8125        0.46296300000000007        0.345721        0        
C2        C        0.84375        0.518519        0.345721        0        
C3        C        0.8125        0.537037        0.345721        0        
C4        C        0.84375        0.481481        0.345721        0        
C1        C        0.8125        0.574075        0.345721        0        
C2        C        0.84375        0.62963        0.345721        0        
C3        C        0.8125        0.648148        0.345721        0        
C4        C        0.84375        0.592592        0.345721        0        
C1        C        0.875        0.018519        0.345721        0        
C2        C        0.9062500000000001        0.074075        0.345721        0        
C3        C        0.875        0.092592        0.345721        0        
C4        C        0.9062500000000001        0.037037        0.345721        0        
C1        C        0.875        0.12963        0.345721        0        
C2        C        0.9062500000000001        0.185185        0.345721        0        
C3        C        0.875        0.203703        0.345721        0        
C4        C        0.9062500000000001        0.148148        0.345721        0        
C1        C        0.875        0.24074099999999998        0.345721        0        
C2        C        0.9062500000000001        0.296297        0.345721        0        
C3        C        0.875        0.314815        0.345721        0        
C4        C        0.9062500000000001        0.259259        0.345721        0        
C1        C        0.875        0.351852        0.345721        0        
C2        C        0.9062500000000001        0.407408        0.345721        0        
C3        C        0.875        0.425925        0.345721        0        
C4        C        0.9062500000000001        0.37037        0.345721        0        
C1        C        0.875        0.46296300000000007        0.345721        0        
C2        C        0.9062500000000001        0.518519        0.345721        0        
C3        C        0.875        0.537037        0.345721        0        
C4        C        0.9062500000000001        0.481481        0.345721        0        
C1        C        0.875        0.574075        0.345721        0        
C2        C        0.9062500000000001        0.62963        0.345721        0        
C3        C        0.875        0.648148        0.345721        0        
C4        C        0.9062500000000001        0.592592        0.345721        0        
C1        C        0.9375        0.018519        0.345721        0        
C2        C        0.9687500000000001        0.074075        0.345721        0        
C3        C        0.9375        0.092592        0.345721        0        
C4        C        0.9687500000000001        0.037037        0.345721        0        
C1        C        0.9375        0.12963        0.345721        0        
C2        C        0.9687500000000001        0.185185        0.345721        0        
C3        C        0.9375        0.203703        0.345721        0        
C4        C        0.9687500000000001        0.148148        0.345721        0        
C1        C        0.9375        0.24074099999999998        0.345721        0        
C2        C        0.9687500000000001        0.296297        0.345721        0        
C3        C        0.9375        0.314815        0.345721        0        
C4        C        0.9687500000000001        0.259259        0.345721        0        
C1        C        0.9375        0.351852        0.345721        0        
C2        C        0.9687500000000001        0.407408        0.345721        0        
C3        C        0.9375        0.425925        0.345721        0        
C4        C        0.9687500000000001        0.37037        0.345721        0        
C1        C        0.9375        0.46296300000000007        0.345721        0        
C2        C        0.9687500000000001        0.518519        0.345721        0        
C3        C        0.9375        0.537037        0.345721        0        
C4        C        0.9687500000000001        0.481481        0.345721        0        
C1        C        0.9375        0.574075        0.345721        0        
C2        C        0.9687500000000001        0.62963        0.345721        0        
C3        C        0.9375        0.648148        0.345721        0        
C4        C        0.9687500000000001        0.592592        0.345721        0        
C1        C        0.0        0.685186        0.345721        0        
C1        C        0.0625        0.685186        0.345721        0        
C1        C        0.125        0.685186        0.345721        0        
C1        C        0.1875        0.685186        0.345721        0        
C1        C        0.25        0.685186        0.345721        0        
C1        C        0.3125        0.685186        0.345721        0        
C1        C        0.375        0.685186        0.345721        0        
C1        C        0.4375        0.685186        0.345721        0        
C1        C        0.5        0.685186        0.345721        0        
C1        C        0.5625        0.685186        0.345721        0        
C1        C        0.625        0.685186        0.345721        0        
C1        C        0.6875        0.685186        0.345721        0        
C1        C        0.75        0.685186        0.345721        0        
C1        C        0.8125        0.685186        0.345721        0        
C1        C        0.875        0.685186        0.345721        0        
C1        C        0.9375        0.685186        0.345721        0        
C2        C        0.03125        0.740741        0.345721        0        
C2        C        0.09375        0.740741        0.345721        0        
C2        C        0.15625        0.740741        0.345721        0        
C2        C        0.21875        0.740741        0.345721        0        
C2        C        0.28125        0.740741        0.345721        0        
C2        C        0.34375        0.740741        0.345721        0        
C2        C        0.40625        0.740741        0.345721        0        
C2        C        0.46875        0.740741        0.345721        0        
C2        C        0.53125        0.740741        0.345721        0        
C2        C        0.59375        0.740741        0.345721        0        
C2        C        0.65625        0.740741        0.345721        0        
C2        C        0.71875        0.740741        0.345721        0        
C2        C        0.78125        0.740741        0.345721        0        
C2        C        0.84375        0.740741        0.345721        0        
C2        C        0.9062500000000001        0.740741        0.345721        0        
C2        C        0.9687500000000001        0.740741        0.345721        0        
C3        C        0.0        0.759259        0.345721        0        
C3        C        0.0625        0.759259        0.345721        0        
C3        C        0.125        0.759259        0.345721        0        
C3        C        0.1875        0.759259        0.345721        0        
C3        C        0.25        0.759259        0.345721        0        
C3        C        0.3125        0.759259        0.345721        0        
C3        C        0.375        0.759259        0.345721        0        
C3        C        0.4375        0.759259        0.345721        0        
C3        C        0.5        0.759259        0.345721        0        
C3        C        0.5625        0.759259        0.345721        0        
C3        C        0.625        0.759259        0.345721        0        
C3        C        0.6875        0.759259        0.345721        0        
C3        C        0.75        0.759259        0.345721        0        
C3        C        0.8125        0.759259        0.345721        0        
C3        C        0.875        0.759259        0.345721        0        
C3        C        0.9375        0.759259        0.345721        0        
C4        C        0.03125        0.703703        0.345721        0        
C4        C        0.09375        0.703703        0.345721        0        
C4        C        0.15625        0.703703        0.345721        0        
C4        C        0.21875        0.703703        0.345721        0        
C4        C        0.28125        0.703703        0.345721        0        
C4        C        0.34375        0.703703        0.345721        0        
C4        C        0.40625        0.703703        0.345721        0        
C4        C        0.46875        0.703703        0.345721        0        
C4        C        0.53125        0.703703        0.345721        0        
C4        C        0.59375        0.703703        0.345721        0        
C4        C        0.65625        0.703703        0.345721        0        
C4        C        0.71875        0.703703        0.345721        0        
C4        C        0.78125        0.703703        0.345721        0        
C4        C        0.84375        0.703703        0.345721        0        
C4        C        0.9062500000000001        0.703703        0.345721        0        
C4        C        0.9687500000000001        0.703703        0.345721        0        
C1        C        0.0        0.796297        0.345721        0        
C1        C        0.0625        0.796297        0.345721        0        
C1        C        0.125        0.796297        0.345721        0        
C1        C        0.1875        0.796297        0.345721        0        
C1        C        0.25        0.796297        0.345721        0        
C1        C        0.3125        0.796297        0.345721        0        
C1        C        0.375        0.796297        0.345721        0        
C1        C        0.4375        0.796297        0.345721        0        
C1        C        0.5        0.796297        0.345721        0        
C1        C        0.5625        0.796297        0.345721        0        
C1        C        0.625        0.796297        0.345721        0        
C1        C        0.6875        0.796297        0.345721        0        
C1        C        0.75        0.796297        0.345721        0        
C1        C        0.8125        0.796297        0.345721        0        
C1        C        0.875        0.796297        0.345721        0        
C1        C        0.9375        0.796297        0.345721        0        
C2        C        0.03125        0.851852        0.345721        0        
C2        C        0.09375        0.851852        0.345721        0        
C2        C        0.15625        0.851852        0.345721        0        
C2        C        0.21875        0.851852        0.345721        0        
C2        C        0.28125        0.851852        0.345721        0        
C2        C        0.34375        0.851852        0.345721        0        
C2        C        0.40625        0.851852        0.345721        0        
C2        C        0.46875        0.851852        0.345721        0        
C2        C        0.53125        0.851852        0.345721        0        
C2        C        0.59375        0.851852        0.345721        0        
C2        C        0.65625        0.851852        0.345721        0        
C2        C        0.71875        0.851852        0.345721        0        
C2        C        0.78125        0.851852        0.345721        0        
C2        C        0.84375        0.851852        0.345721        0        
C2        C        0.9062500000000001        0.851852        0.345721        0        
C2        C        0.9687500000000001        0.851852        0.345721        0        
C3        C        0.0        0.87037        0.345721        0        
C3        C        0.0625        0.87037        0.345721        0        
C3        C        0.125        0.87037        0.345721        0        
C3        C        0.1875        0.87037        0.345721        0        
C3        C        0.25        0.87037        0.345721        0        
C3        C        0.3125        0.87037        0.345721        0        
C3        C        0.375        0.87037        0.345721        0        
C3        C        0.4375        0.87037        0.345721        0        
C3        C        0.5        0.87037        0.345721        0        
C3        C        0.5625        0.87037        0.345721        0        
C3        C        0.625        0.87037        0.345721        0        
C3        C        0.6875        0.87037        0.345721        0        
C3        C        0.75        0.87037        0.345721        0        
C3        C        0.8125        0.87037        0.345721        0        
C3        C        0.875        0.87037        0.345721        0        
C3        C        0.9375        0.87037        0.345721        0        
C4        C        0.03125        0.814814        0.345721        0        
C4        C        0.09375        0.814814        0.345721        0        
C4        C        0.15625        0.814814        0.345721        0        
C4        C        0.21875        0.814814        0.345721        0        
C4        C        0.28125        0.814814        0.345721        0        
C4        C        0.34375        0.814814        0.345721        0        
C4        C        0.40625        0.814814        0.345721        0        
C4        C        0.46875        0.814814        0.345721        0        
C4        C        0.53125        0.814814        0.345721        0        
C4        C        0.59375        0.814814        0.345721        0        
C4        C        0.65625        0.814814        0.345721        0        
C4        C        0.71875        0.814814        0.345721        0        
C4        C        0.78125        0.814814        0.345721        0        
C4        C        0.84375        0.814814        0.345721        0        
C4        C        0.9062500000000001        0.814814        0.345721        0        
C4        C        0.9687500000000001        0.814814        0.345721        0        
C1        C        0.0        0.907408        0.345721        0        
C1        C        0.0625        0.907408        0.345721        0        
C1        C        0.125        0.907408        0.345721        0        
C1        C        0.1875        0.907408        0.345721        0        
C1        C        0.25        0.907408        0.345721        0        
C1        C        0.3125        0.907408        0.345721        0        
C1        C        0.375        0.907408        0.345721        0        
C1        C        0.4375        0.907408        0.345721        0        
C1        C        0.5        0.907408        0.345721        0        
C1        C        0.5625        0.907408        0.345721        0        
C1        C        0.625        0.907408        0.345721        0        
C1        C        0.6875        0.907408        0.345721        0        
C1        C        0.75        0.907408        0.345721        0        
C1        C        0.8125        0.907408        0.345721        0        
C1        C        0.875        0.907408        0.345721        0        
C1        C        0.9375        0.907408        0.345721        0        
C2        C        0.03125        0.962963        0.345721        0        
C2        C        0.09375        0.962963        0.345721        0        
C2        C        0.15625        0.962963        0.345721        0        
C2        C        0.21875        0.962963        0.345721        0        
C2        C        0.28125        0.962963        0.345721        0        
C2        C        0.34375        0.962963        0.345721        0        
C2        C        0.40625        0.962963        0.345721        0        
C2        C        0.46875        0.962963        0.345721        0        
C2        C        0.53125        0.962963        0.345721        0        
C2        C        0.59375        0.962963        0.345721        0        
C2        C        0.65625        0.962963        0.345721        0        
C2        C        0.71875        0.962963        0.345721        0        
C2        C        0.78125        0.962963        0.345721        0        
C2        C        0.84375        0.962963        0.345721        0        
C2        C        0.9062500000000001        0.962963        0.345721        0        
C2        C        0.9687500000000001        0.962963        0.345721        0        
C3        C        0.0        0.9814809999999999        0.345721        0        
C3        C        0.0625        0.9814809999999999        0.345721        0        
C3        C        0.125        0.9814809999999999        0.345721        0        
C3        C        0.1875        0.9814809999999999        0.345721        0        
C3        C        0.25        0.9814809999999999        0.345721        0        
C3        C        0.3125        0.9814809999999999        0.345721        0        
C3        C        0.375        0.9814809999999999        0.345721        0        
C3        C        0.4375        0.9814809999999999        0.345721        0        
C3        C        0.5        0.9814809999999999        0.345721        0        
C3        C        0.5625        0.9814809999999999        0.345721        0        
C3        C        0.625        0.9814809999999999        0.345721        0        
C3        C        0.6875        0.9814809999999999        0.345721        0        
C3        C        0.75        0.9814809999999999        0.345721        0        
C3        C        0.8125        0.9814809999999999        0.345721        0        
C3        C        0.875        0.9814809999999999        0.345721        0        
C3        C        0.9375        0.9814809999999999        0.345721        0        
C4        C        0.03125        0.925925        0.345721        0        
C4        C        0.09375        0.925925        0.345721        0        
C4        C        0.15625        0.925925        0.345721        0        
C4        C        0.21875        0.925925        0.345721        0        
C4        C        0.28125        0.925925        0.345721        0        
C4        C        0.34375        0.925925        0.345721        0        
C4        C        0.40625        0.925925        0.345721        0        
C4        C        0.46875        0.925925        0.345721        0        
C4        C        0.53125        0.925925        0.345721        0        
C4        C        0.59375        0.925925        0.345721        0        
C4        C        0.65625        0.925925        0.345721        0        
C4        C        0.71875        0.925925        0.345721        0        
C4        C        0.78125        0.925925        0.345721        0        
C4        C        0.84375        0.925925        0.345721        0        
C4        C        0.9062500000000001        0.925925        0.345721        0        
C4        C        0.9687500000000001        0.925925        0.345721        0        
C_FG        C        0.0        0.018519        0.421171        0.08        
C2        C        0.03125        0.074075        0.421171        0        
C3        C        0.0        0.092592        0.421171        0        
C4        C        0.03125        0.037037        0.421171        0        
C1        C        0.0        0.12963        0.421171        0        
C2        C        0.03125        0.185185        0.421171        0        
C_FG        C        0.0        0.203703        0.421171        0.08        
C4        C        0.03125        0.148148        0.421171        0        
C1        C        0.0        0.24074099999999998        0.421171        0        
C2        C        0.03125        0.296297        0.421171        0        
C3        C        0.0        0.314815        0.421171        0        
C4        C        0.03125        0.259259        0.421171        0        
C_FG        C        0.0        0.351852        0.421171        0.08        
C2        C        0.03125        0.407408        0.421171        0        
C3        C        0.0        0.425925        0.421171        0        
C4        C        0.03125        0.37037        0.421171        0        
C1        C        0.0        0.46296300000000007        0.421171        0        
C2        C        0.03125        0.518519        0.421171        0        
C_FG        C        0.0        0.537037        0.421171        0.08        
C4        C        0.03125        0.481481        0.421171        0        
C1        C        0.0        0.574075        0.421171        0        
C2        C        0.03125        0.62963        0.421171        0        
C3        C        0.0        0.648148        0.421171        0        
C4        C        0.03125        0.592592        0.421171        0        
C1        C        0.0625        0.018519        0.421171        0        
C2        C        0.09375        0.074075        0.421171        0        
C3        C        0.0625        0.092592        0.421171        0        
C4        C        0.09375        0.037037        0.421171        0        
C1        C        0.0625        0.12963        0.421171        0        
C2        C        0.09375        0.185185        0.421171        0        
C3        C        0.0625        0.203703        0.421171        0        
C4        C        0.09375        0.148148        0.421171        0        
C1        C        0.0625        0.24074099999999998        0.421171        0        
C2        C        0.09375        0.296297        0.421171        0        
C3        C        0.0625        0.314815        0.421171        0        
C4        C        0.09375        0.259259        0.421171        0        
C1        C        0.0625        0.351852        0.421171        0        
C2        C        0.09375        0.407408        0.421171        0        
C3        C        0.0625        0.425925        0.421171        0        
C4        C        0.09375        0.37037        0.421171        0        
C1        C        0.0625        0.46296300000000007        0.421171        0        
C2        C        0.09375        0.518519        0.421171        0        
C3        C        0.0625        0.537037        0.421171        0        
C4        C        0.09375        0.481481        0.421171        0        
C1        C        0.0625        0.574075        0.421171        0        
C2        C        0.09375        0.62963        0.421171        0        
C3        C        0.0625        0.648148        0.421171        0        
C4        C        0.09375        0.592592        0.421171        0        
C1        C        0.125        0.018519        0.421171        0        
C2        C        0.15625        0.074075        0.421171        0        
C3        C        0.125        0.092592        0.421171        0        
C4        C        0.15625        0.037037        0.421171        0        
C1        C        0.125        0.12963        0.421171        0        
C2        C        0.15625        0.185185        0.421171        0        
C3        C        0.125        0.203703        0.421171        0        
C4        C        0.15625        0.148148        0.421171        0        
C1        C        0.125        0.24074099999999998        0.421171        0        
C2        C        0.15625        0.296297        0.421171        0        
C3        C        0.125        0.314815        0.421171        0        
C4        C        0.15625        0.259259        0.421171        0        
C1        C        0.125        0.351852        0.421171        0        
C2        C        0.15625        0.407408        0.421171        0        
C3        C        0.125        0.425925        0.421171        0        
C4        C        0.15625        0.37037        0.421171        0        
C1        C        0.125        0.46296300000000007        0.421171        0        
C2        C        0.15625        0.518519        0.421171        0        
C3        C        0.125        0.537037        0.421171        0        
C4        C        0.15625        0.481481        0.421171        0        
C1        C        0.125        0.574075        0.421171        0        
C2        C        0.15625        0.62963        0.421171        0        
C3        C        0.125        0.648148        0.421171        0        
C4        C        0.15625        0.592592        0.421171        0        
C1        C        0.1875        0.018519        0.421171        0        
C2        C        0.21875        0.074075        0.421171        0        
C3        C        0.1875        0.092592        0.421171        0        
C4        C        0.21875        0.037037        0.421171        0        
C1        C        0.1875        0.12963        0.421171        0        
C2        C        0.21875        0.185185        0.421171        0        
C3        C        0.1875        0.203703        0.421171        0        
C4        C        0.21875        0.148148        0.421171        0        
C1        C        0.1875        0.24074099999999998        0.421171        0        
C2        C        0.21875        0.296297        0.421171        0        
C3        C        0.1875        0.314815        0.421171        0        
C4        C        0.21875        0.259259        0.421171        0        
C1        C        0.1875        0.351852        0.421171        0        
C2        C        0.21875        0.407408        0.421171        0        
C3        C        0.1875        0.425925        0.421171        0        
C4        C        0.21875        0.37037        0.421171        0        
C1        C        0.1875        0.46296300000000007        0.421171        0        
C2        C        0.21875        0.518519        0.421171        0        
C3        C        0.1875        0.537037        0.421171        0        
C4        C        0.21875        0.481481        0.421171        0        
C1        C        0.1875        0.574075        0.421171        0        
C2        C        0.21875        0.62963        0.421171        0        
C3        C        0.1875        0.648148        0.421171        0        
C4        C        0.21875        0.592592        0.421171        0        
C_FG        C        0.25        0.018519        0.421171        0.08        
C2        C        0.28125        0.074075        0.421171        0        
C3        C        0.25        0.092592        0.421171        0        
C4        C        0.28125        0.037037        0.421171        0        
C1        C        0.25        0.12963        0.421171        0        
C2        C        0.28125        0.185185        0.421171        0        
C_FG        C        0.25        0.203703        0.421171        0.08        
C4        C        0.28125        0.148148        0.421171        0        
C1        C        0.25        0.24074099999999998        0.421171        0        
C2        C        0.28125        0.296297        0.421171        0        
C3        C        0.25        0.314815        0.421171        0        
C4        C        0.28125        0.259259        0.421171        0        
C_FG        C        0.25        0.351852        0.421171        0.08        
C2        C        0.28125        0.407408        0.421171        0        
C3        C        0.25        0.425925        0.421171        0        
C4        C        0.28125        0.37037        0.421171        0        
C1        C        0.25        0.46296300000000007        0.421171        0        
C2        C        0.28125        0.518519        0.421171        0        
C_FG        C        0.25        0.537037        0.421171        0.08        
C4        C        0.28125        0.481481        0.421171        0        
C1        C        0.25        0.574075        0.421171        0        
C2        C        0.28125        0.62963        0.421171        0        
C3        C        0.25        0.648148        0.421171        0        
C4        C        0.28125        0.592592        0.421171        0        
C1        C        0.3125        0.018519        0.421171        0        
C2        C        0.34375        0.074075        0.421171        0        
C3        C        0.3125        0.092592        0.421171        0        
C4        C        0.34375        0.037037        0.421171        0        
C1        C        0.3125        0.12963        0.421171        0        
C2        C        0.34375        0.185185        0.421171        0        
C3        C        0.3125        0.203703        0.421171        0        
C4        C        0.34375        0.148148        0.421171        0        
C1        C        0.3125        0.24074099999999998        0.421171        0        
C2        C        0.34375        0.296297        0.421171        0        
C3        C        0.3125        0.314815        0.421171        0        
C4        C        0.34375        0.259259        0.421171        0        
C1        C        0.3125        0.351852        0.421171        0        
C2        C        0.34375        0.407408        0.421171        0        
C3        C        0.3125        0.425925        0.421171        0        
C4        C        0.34375        0.37037        0.421171        0        
C1        C        0.3125        0.46296300000000007        0.421171        0        
C2        C        0.34375        0.518519        0.421171        0        
C3        C        0.3125        0.537037        0.421171        0        
C4        C        0.34375        0.481481        0.421171        0        
C1        C        0.3125        0.574075        0.421171        0        
C2        C        0.34375        0.62963        0.421171        0        
C3        C        0.3125        0.648148        0.421171        0        
C4        C        0.34375        0.592592        0.421171        0        
C1        C        0.375        0.018519        0.421171        0        
C2        C        0.40625        0.074075        0.421171        0        
C3        C        0.375        0.092592        0.421171        0        
C4        C        0.40625        0.037037        0.421171        0        
C1        C        0.375        0.12963        0.421171        0        
C2        C        0.40625        0.185185        0.421171        0        
C3        C        0.375        0.203703        0.421171        0        
C4        C        0.40625        0.148148        0.421171        0        
C1        C        0.375        0.24074099999999998        0.421171        0        
C2        C        0.40625        0.296297        0.421171        0        
C3        C        0.375        0.314815        0.421171        0        
C4        C        0.40625        0.259259        0.421171        0        
C1        C        0.375        0.351852        0.421171        0        
C2        C        0.40625        0.407408        0.421171        0        
C3        C        0.375        0.425925        0.421171        0        
C4        C        0.40625        0.37037        0.421171        0        
C1        C        0.375        0.46296300000000007        0.421171        0        
C2        C        0.40625        0.518519        0.421171        0        
C3        C        0.375        0.537037        0.421171        0        
C4        C        0.40625        0.481481        0.421171        0        
C1        C        0.375        0.574075        0.421171        0        
C2        C        0.40625        0.62963        0.421171        0        
C3        C        0.375        0.648148        0.421171        0        
C4        C        0.40625        0.592592        0.421171        0        
C1        C        0.4375        0.018519        0.421171        0        
C2        C        0.46875        0.074075        0.421171        0        
C3        C        0.4375        0.092592        0.421171        0        
C4        C        0.46875        0.037037        0.421171        0        
C1        C        0.4375        0.12963        0.421171        0        
C2        C        0.46875        0.185185        0.421171        0        
C3        C        0.4375        0.203703        0.421171        0        
C4        C        0.46875        0.148148        0.421171        0        
C1        C        0.4375        0.24074099999999998        0.421171        0        
C2        C        0.46875        0.296297        0.421171        0        
C3        C        0.4375        0.314815        0.421171        0        
C4        C        0.46875        0.259259        0.421171        0        
C1        C        0.4375        0.351852        0.421171        0        
C2        C        0.46875        0.407408        0.421171        0        
C3        C        0.4375        0.425925        0.421171        0        
C4        C        0.46875        0.37037        0.421171        0        
C1        C        0.4375        0.46296300000000007        0.421171        0        
C2        C        0.46875        0.518519        0.421171        0        
C3        C        0.4375        0.537037        0.421171        0        
C4        C        0.46875        0.481481        0.421171        0        
C1        C        0.4375        0.574075        0.421171        0        
C2        C        0.46875        0.62963        0.421171        0        
C3        C        0.4375        0.648148        0.421171        0        
C4        C        0.46875        0.592592        0.421171        0        
C_FG        C        0.5        0.018519        0.421171        0.08        
C2        C        0.53125        0.074075        0.421171        0        
C3        C        0.5        0.092592        0.421171        0        
C4        C        0.53125        0.037037        0.421171        0        
C1        C        0.5        0.12963        0.421171        0        
C2        C        0.53125        0.185185        0.421171        0        
C_FG        C        0.5        0.203703        0.421171        0.08        
C4        C        0.53125        0.148148        0.421171        0        
C1        C        0.5        0.24074099999999998        0.421171        0        
C2        C        0.53125        0.296297        0.421171        0        
C3        C        0.5        0.314815        0.421171        0        
C4        C        0.53125        0.259259        0.421171        0        
C_FG        C        0.5        0.351852        0.421171        0.08        
C2        C        0.53125        0.407408        0.421171        0        
C3        C        0.5        0.425925        0.421171        0        
C4        C        0.53125        0.37037        0.421171        0        
C1        C        0.5        0.46296300000000007        0.421171        0        
C2        C        0.53125        0.518519        0.421171        0        
C_FG        C        0.5        0.537037        0.421171        0.08        
C4        C        0.53125        0.481481        0.421171        0        
C1        C        0.5        0.574075        0.421171        0        
C2        C        0.53125        0.62963        0.421171        0        
C3        C        0.5        0.648148        0.421171        0        
C4        C        0.53125        0.592592        0.421171        0        
C1        C        0.5625        0.018519        0.421171        0        
C2        C        0.59375        0.074075        0.421171        0        
C3        C        0.5625        0.092592        0.421171        0        
C4        C        0.59375        0.037037        0.421171        0        
C1        C        0.5625        0.12963        0.421171        0        
C2        C        0.59375        0.185185        0.421171        0        
C3        C        0.5625        0.203703        0.421171        0        
C4        C        0.59375        0.148148        0.421171        0        
C1        C        0.5625        0.24074099999999998        0.421171        0        
C2        C        0.59375        0.296297        0.421171        0        
C3        C        0.5625        0.314815        0.421171        0        
C4        C        0.59375        0.259259        0.421171        0        
C1        C        0.5625        0.351852        0.421171        0        
C2        C        0.59375        0.407408        0.421171        0        
C3        C        0.5625        0.425925        0.421171        0        
C4        C        0.59375        0.37037        0.421171        0        
C1        C        0.5625        0.46296300000000007        0.421171        0        
C2        C        0.59375        0.518519        0.421171        0        
C3        C        0.5625        0.537037        0.421171        0        
C4        C        0.59375        0.481481        0.421171        0        
C1        C        0.5625        0.574075        0.421171        0        
C2        C        0.59375        0.62963        0.421171        0        
C3        C        0.5625        0.648148        0.421171        0        
C4        C        0.59375        0.592592        0.421171        0        
C1        C        0.625        0.018519        0.421171        0        
C2        C        0.65625        0.074075        0.421171        0        
C3        C        0.625        0.092592        0.421171        0        
C4        C        0.65625        0.037037        0.421171        0        
C1        C        0.625        0.12963        0.421171        0        
C2        C        0.65625        0.185185        0.421171        0        
C3        C        0.625        0.203703        0.421171        0        
C4        C        0.65625        0.148148        0.421171        0        
C1        C        0.625        0.24074099999999998        0.421171        0        
C2        C        0.65625        0.296297        0.421171        0        
C3        C        0.625        0.314815        0.421171        0        
C4        C        0.65625        0.259259        0.421171        0        
C1        C        0.625        0.351852        0.421171        0        
C2        C        0.65625        0.407408        0.421171        0        
C3        C        0.625        0.425925        0.421171        0        
C4        C        0.65625        0.37037        0.421171        0        
C1        C        0.625        0.46296300000000007        0.421171        0        
C2        C        0.65625        0.518519        0.421171        0        
C3        C        0.625        0.537037        0.421171        0        
C4        C        0.65625        0.481481        0.421171        0        
C1        C        0.625        0.574075        0.421171        0        
C2        C        0.65625        0.62963        0.421171        0        
C3        C        0.625        0.648148        0.421171        0        
C4        C        0.65625        0.592592        0.421171        0        
C1        C        0.6875        0.018519        0.421171        0        
C2        C        0.71875        0.074075        0.421171        0        
C3        C        0.6875        0.092592        0.421171        0        
C4        C        0.71875        0.037037        0.421171        0        
C1        C        0.6875        0.12963        0.421171        0        
C2        C        0.71875        0.185185        0.421171        0        
C3        C        0.6875        0.203703        0.421171        0        
C4        C        0.71875        0.148148        0.421171        0        
C1        C        0.6875        0.24074099999999998        0.421171        0        
C2        C        0.71875        0.296297        0.421171        0        
C3        C        0.6875        0.314815        0.421171        0        
C4        C        0.71875        0.259259        0.421171        0        
C1        C        0.6875        0.351852        0.421171        0        
C2        C        0.71875        0.407408        0.421171        0        
C3        C        0.6875        0.425925        0.421171        0        
C4        C        0.71875        0.37037        0.421171        0        
C1        C        0.6875        0.46296300000000007        0.421171        0        
C2        C        0.71875        0.518519        0.421171        0        
C3        C        0.6875        0.537037        0.421171        0        
C4        C        0.71875        0.481481        0.421171        0        
C1        C        0.6875        0.574075        0.421171        0        
C2        C        0.71875        0.62963        0.421171        0        
C3        C        0.6875        0.648148        0.421171        0        
C4        C        0.71875        0.592592        0.421171        0        
C_FG        C        0.75        0.018519        0.421171        0.08        
C2        C        0.78125        0.074075        0.421171        0        
C3        C        0.75        0.092592        0.421171        0        
C4        C        0.78125        0.037037        0.421171        0        
C1        C        0.75        0.12963        0.421171        0        
C2        C        0.78125        0.185185        0.421171        0        
C_FG        C        0.75        0.203703        0.421171        0.08        
C4        C        0.78125        0.148148        0.421171        0        
C1        C        0.75        0.24074099999999998        0.421171        0        
C2        C        0.78125        0.296297        0.421171        0        
C3        C        0.75        0.314815        0.421171        0        
C4        C        0.78125        0.259259        0.421171        0        
C_FG        C        0.75        0.351852        0.421171        0.08        
C2        C        0.78125        0.407408        0.421171        0        
C3        C        0.75        0.425925        0.421171        0        
C4        C        0.78125        0.37037        0.421171        0        
C1        C        0.75        0.46296300000000007        0.421171        0        
C2        C        0.78125        0.518519        0.421171        0        
C_FG        C        0.75        0.537037        0.421171        0.08        
C4        C        0.78125        0.481481        0.421171        0        
C1        C        0.75        0.574075        0.421171        0        
C2        C        0.78125        0.62963        0.421171        0        
C3        C        0.75        0.648148        0.421171        0        
C4        C        0.78125        0.592592        0.421171        0        
C1        C        0.8125        0.018519        0.421171        0        
C2        C        0.84375        0.074075        0.421171        0        
C3        C        0.8125        0.092592        0.421171        0        
C4        C        0.84375        0.037037        0.421171        0        
C1        C        0.8125        0.12963        0.421171        0        
C2        C        0.84375        0.185185        0.421171        0        
C3        C        0.8125        0.203703        0.421171        0        
C4        C        0.84375        0.148148        0.421171        0        
C1        C        0.8125        0.24074099999999998        0.421171        0        
C2        C        0.84375        0.296297        0.421171        0        
C3        C        0.8125        0.314815        0.421171        0        
C4        C        0.84375        0.259259        0.421171        0        
C1        C        0.8125        0.351852        0.421171        0        
C2        C        0.84375        0.407408        0.421171        0        
C3        C        0.8125        0.425925        0.421171        0        
C4        C        0.84375        0.37037        0.421171        0        
C1        C        0.8125        0.46296300000000007        0.421171        0        
C2        C        0.84375        0.518519        0.421171        0        
C3        C        0.8125        0.537037        0.421171        0        
C4        C        0.84375        0.481481        0.421171        0        
C1        C        0.8125        0.574075        0.421171        0        
C2        C        0.84375        0.62963        0.421171        0        
C3        C        0.8125        0.648148        0.421171        0        
C4        C        0.84375        0.592592        0.421171        0        
C1        C        0.875        0.018519        0.421171        0        
C2        C        0.9062500000000001        0.074075        0.421171        0        
C3        C        0.875        0.092592        0.421171        0        
C4        C        0.9062500000000001        0.037037        0.421171        0        
C1        C        0.875        0.12963        0.421171        0        
C2        C        0.9062500000000001        0.185185        0.421171        0        
C3        C        0.875        0.203703        0.421171        0        
C4        C        0.9062500000000001        0.148148        0.421171        0        
C1        C        0.875        0.24074099999999998        0.421171        0        
C2        C        0.9062500000000001        0.296297        0.421171        0        
C3        C        0.875        0.314815        0.421171        0        
C4        C        0.9062500000000001        0.259259        0.421171        0        
C1        C        0.875        0.351852        0.421171        0        
C2        C        0.9062500000000001        0.407408        0.421171        0        
C3        C        0.875        0.425925        0.421171        0        
C4        C        0.9062500000000001        0.37037        0.421171        0        
C1        C        0.875        0.46296300000000007        0.421171        0        
C2        C        0.9062500000000001        0.518519        0.421171        0        
C3        C        0.875        0.537037        0.421171        0        
C4        C        0.9062500000000001        0.481481        0.421171        0        
C1        C        0.875        0.574075        0.421171        0        
C2        C        0.9062500000000001        0.62963        0.421171        0        
C3        C        0.875        0.648148        0.421171        0        
C4        C        0.9062500000000001        0.592592        0.421171        0        
C1        C        0.9375        0.018519        0.421171        0        
C2        C        0.9687500000000001        0.074075        0.421171        0        
C3        C        0.9375        0.092592        0.421171        0        
C4        C        0.9687500000000001        0.037037        0.421171        0        
C1        C        0.9375        0.12963        0.421171        0        
C2        C        0.9687500000000001        0.185185        0.421171        0        
C3        C        0.9375        0.203703        0.421171        0        
C4        C        0.9687500000000001        0.148148        0.421171        0        
C1        C        0.9375        0.24074099999999998        0.421171        0        
C2        C        0.9687500000000001        0.296297        0.421171        0        
C3        C        0.9375        0.314815        0.421171        0        
C4        C        0.9687500000000001        0.259259        0.421171        0        
C1        C        0.9375        0.351852        0.421171        0        
C2        C        0.9687500000000001        0.407408        0.421171        0        
C3        C        0.9375        0.425925        0.421171        0        
C4        C        0.9687500000000001        0.37037        0.421171        0        
C1        C        0.9375        0.46296300000000007        0.421171        0        
C2        C        0.9687500000000001        0.518519        0.421171        0        
C3        C        0.9375        0.537037        0.421171        0        
C4        C        0.9687500000000001        0.481481        0.421171        0        
C1        C        0.9375        0.574075        0.421171        0        
C2        C        0.9687500000000001        0.62963        0.421171        0        
C3        C        0.9375        0.648148        0.421171        0        
C4        C        0.9687500000000001        0.592592        0.421171        0        
C_FG        C        0.0        0.685186        0.421171        0.08        
C1        C        0.0625        0.685186        0.421171        0        
C1        C        0.125        0.685186        0.421171        0        
C1        C        0.1875        0.685186        0.421171        0        
C_FG        C        0.25        0.685186        0.421171        0.08        
C1        C        0.3125        0.685186        0.421171        0        
C1        C        0.375        0.685186        0.421171        0        
C1        C        0.4375        0.685186        0.421171        0        
C_FG        C        0.5        0.685186        0.421171        0.08        
C1        C        0.5625        0.685186        0.421171        0        
C1        C        0.625        0.685186        0.421171        0        
C1        C        0.6875        0.685186        0.421171        0        
C_FG        C        0.75        0.685186        0.421171        0.08        
C1        C        0.8125        0.685186        0.421171        0        
C1        C        0.875        0.685186        0.421171        0        
C1        C        0.9375        0.685186        0.421171        0        
C2        C        0.03125        0.740741        0.421171        0        
C2        C        0.09375        0.740741        0.421171        0        
C2        C        0.15625        0.740741        0.421171        0        
C2        C        0.21875        0.740741        0.421171        0        
C2        C        0.28125        0.740741        0.421171        0        
C2        C        0.34375        0.740741        0.421171        0        
C2        C        0.40625        0.740741        0.421171        0        
C2        C        0.46875        0.740741        0.421171        0        
C2        C        0.53125        0.740741        0.421171        0        
C2        C        0.59375        0.740741        0.421171        0        
C2        C        0.65625        0.740741        0.421171        0        
C2        C        0.71875        0.740741        0.421171        0        
C2        C        0.78125        0.740741        0.421171        0        
C2        C        0.84375        0.740741        0.421171        0        
C2        C        0.9062500000000001        0.740741        0.421171        0        
C2        C        0.9687500000000001        0.740741        0.421171        0        
C3        C        0.0        0.759259        0.421171        0        
C3        C        0.0625        0.759259        0.421171        0        
C3        C        0.125        0.759259        0.421171        0        
C3        C        0.1875        0.759259        0.421171        0        
C3        C        0.25        0.759259        0.421171        0        
C3        C        0.3125        0.759259        0.421171        0        
C3        C        0.375        0.759259        0.421171        0        
C3        C        0.4375        0.759259        0.421171        0        
C3        C        0.5        0.759259        0.421171        0        
C3        C        0.5625        0.759259        0.421171        0        
C3        C        0.625        0.759259        0.421171        0        
C3        C        0.6875        0.759259        0.421171        0        
C3        C        0.75        0.759259        0.421171        0        
C3        C        0.8125        0.759259        0.421171        0        
C3        C        0.875        0.759259        0.421171        0        
C3        C        0.9375        0.759259        0.421171        0        
C4        C        0.03125        0.703703        0.421171        0        
C4        C        0.09375        0.703703        0.421171        0        
C4        C        0.15625        0.703703        0.421171        0        
C4        C        0.21875        0.703703        0.421171        0        
C4        C        0.28125        0.703703        0.421171        0        
C4        C        0.34375        0.703703        0.421171        0        
C4        C        0.40625        0.703703        0.421171        0        
C4        C        0.46875        0.703703        0.421171        0        
C4        C        0.53125        0.703703        0.421171        0        
C4        C        0.59375        0.703703        0.421171        0        
C4        C        0.65625        0.703703        0.421171        0        
C4        C        0.71875        0.703703        0.421171        0        
C4        C        0.78125        0.703703        0.421171        0        
C4        C        0.84375        0.703703        0.421171        0        
C4        C        0.9062500000000001        0.703703        0.421171        0        
C4        C        0.9687500000000001        0.703703        0.421171        0        
C1        C        0.0        0.796297        0.421171        0        
C1        C        0.0625        0.796297        0.421171        0        
C1        C        0.125        0.796297        0.421171        0        
C1        C        0.1875        0.796297        0.421171        0        
C1        C        0.25        0.796297        0.421171        0        
C1        C        0.3125        0.796297        0.421171        0        
C1        C        0.375        0.796297        0.421171        0        
C1        C        0.4375        0.796297        0.421171        0        
C1        C        0.5        0.796297        0.421171        0        
C1        C        0.5625        0.796297        0.421171        0        
C1        C        0.625        0.796297        0.421171        0        
C1        C        0.6875        0.796297        0.421171        0        
C1        C        0.75        0.796297        0.421171        0        
C1        C        0.8125        0.796297        0.421171        0        
C1        C        0.875        0.796297        0.421171        0        
C1        C        0.9375        0.796297        0.421171        0        
C2        C        0.03125        0.851852        0.421171        0        
C2        C        0.09375        0.851852        0.421171        0        
C2        C        0.15625        0.851852        0.421171        0        
C2        C        0.21875        0.851852        0.421171        0        
C2        C        0.28125        0.851852        0.421171        0        
C2        C        0.34375        0.851852        0.421171        0        
C2        C        0.40625        0.851852        0.421171        0        
C2        C        0.46875        0.851852        0.421171        0        
C2        C        0.53125        0.851852        0.421171        0        
C2        C        0.59375        0.851852        0.421171        0        
C2        C        0.65625        0.851852        0.421171        0        
C2        C        0.71875        0.851852        0.421171        0        
C2        C        0.78125        0.851852        0.421171        0        
C2        C        0.84375        0.851852        0.421171        0        
C2        C        0.9062500000000001        0.851852        0.421171        0        
C2        C        0.9687500000000001        0.851852        0.421171        0        
C_FG        C        0.0        0.87037        0.421171        0.08        
C3        C        0.0625        0.87037        0.421171        0        
C3        C        0.125        0.87037        0.421171        0        
C3        C        0.1875        0.87037        0.421171        0        
C_FG        C        0.25        0.87037        0.421171        0.08        
C3        C        0.3125        0.87037        0.421171        0        
C3        C        0.375        0.87037        0.421171        0        
C3        C        0.4375        0.87037        0.421171        0        
C_FG        C        0.5        0.87037        0.421171        0.08        
C3        C        0.5625        0.87037        0.421171        0        
C3        C        0.625        0.87037        0.421171        0        
C3        C        0.6875        0.87037        0.421171        0        
C_FG        C        0.75        0.87037        0.421171        0.08        
C3        C        0.8125        0.87037        0.421171        0        
C3        C        0.875        0.87037        0.421171        0        
C3        C        0.9375        0.87037        0.421171        0        
C4        C        0.03125        0.814814        0.421171        0        
C4        C        0.09375        0.814814        0.421171        0        
C4        C        0.15625        0.814814        0.421171        0        
C4        C        0.21875        0.814814        0.421171        0        
C4        C        0.28125        0.814814        0.421171        0        
C4        C        0.34375        0.814814        0.421171        0        
C4        C        0.40625        0.814814        0.421171        0        
C4        C        0.46875        0.814814        0.421171        0        
C4        C        0.53125        0.814814        0.421171        0        
C4        C        0.59375        0.814814        0.421171        0        
C4        C        0.65625        0.814814        0.421171        0        
C4        C        0.71875        0.814814        0.421171        0        
C4        C        0.78125        0.814814        0.421171        0        
C4        C        0.84375        0.814814        0.421171        0        
C4        C        0.9062500000000001        0.814814        0.421171        0        
C4        C        0.9687500000000001        0.814814        0.421171        0        
C1        C        0.0        0.907408        0.421171        0        
C1        C        0.0625        0.907408        0.421171        0        
C1        C        0.125        0.907408        0.421171        0        
C1        C        0.1875        0.907408        0.421171        0        
C1        C        0.25        0.907408        0.421171        0        
C1        C        0.3125        0.907408        0.421171        0        
C1        C        0.375        0.907408        0.421171        0        
C1        C        0.4375        0.907408        0.421171        0        
C1        C        0.5        0.907408        0.421171        0        
C1        C        0.5625        0.907408        0.421171        0        
C1        C        0.625        0.907408        0.421171        0        
C1        C        0.6875        0.907408        0.421171        0        
C1        C        0.75        0.907408        0.421171        0        
C1        C        0.8125        0.907408        0.421171        0        
C1        C        0.875        0.907408        0.421171        0        
C1        C        0.9375        0.907408        0.421171        0        
C2        C        0.03125        0.962963        0.421171        0        
C2        C        0.09375        0.962963        0.421171        0        
C2        C        0.15625        0.962963        0.421171        0        
C2        C        0.21875        0.962963        0.421171        0        
C2        C        0.28125        0.962963        0.421171        0        
C2        C        0.34375        0.962963        0.421171        0        
C2        C        0.40625        0.962963        0.421171        0        
C2        C        0.46875        0.962963        0.421171        0        
C2        C        0.53125        0.962963        0.421171        0        
C2        C        0.59375        0.962963        0.421171        0        
C2        C        0.65625        0.962963        0.421171        0        
C2        C        0.71875        0.962963        0.421171        0        
C2        C        0.78125        0.962963        0.421171        0        
C2        C        0.84375        0.962963        0.421171        0        
C2        C        0.9062500000000001        0.962963        0.421171        0        
C2        C        0.9687500000000001        0.962963        0.421171        0        
C3        C        0.0        0.9814809999999999        0.421171        0        
C3        C        0.0625        0.9814809999999999        0.421171        0        
C3        C        0.125        0.9814809999999999        0.421171        0        
C3        C        0.1875        0.9814809999999999        0.421171        0        
C3        C        0.25        0.9814809999999999        0.421171        0        
C3        C        0.3125        0.9814809999999999        0.421171        0        
C3        C        0.375        0.9814809999999999        0.421171        0        
C3        C        0.4375        0.9814809999999999        0.421171        0        
C3        C        0.5        0.9814809999999999        0.421171        0        
C3        C        0.5625        0.9814809999999999        0.421171        0        
C3        C        0.625        0.9814809999999999        0.421171        0        
C3        C        0.6875        0.9814809999999999        0.421171        0        
C3        C        0.75        0.9814809999999999        0.421171        0        
C3        C        0.8125        0.9814809999999999        0.421171        0        
C3        C        0.875        0.9814809999999999        0.421171        0        
C3        C        0.9375        0.9814809999999999        0.421171        0        
C4        C        0.03125        0.925925        0.421171        0        
C4        C        0.09375        0.925925        0.421171        0        
C4        C        0.15625        0.925925        0.421171        0        
C4        C        0.21875        0.925925        0.421171        0        
C4        C        0.28125        0.925925        0.421171        0        
C4        C        0.34375        0.925925        0.421171        0        
C4        C        0.40625        0.925925        0.421171        0        
C4        C        0.46875        0.925925        0.421171        0        
C4        C        0.53125        0.925925        0.421171        0        
C4        C        0.59375        0.925925        0.421171        0        
C4        C        0.65625        0.925925        0.421171        0        
C4        C        0.71875        0.925925        0.421171        0        
C4        C        0.78125        0.925925        0.421171        0        
C4        C        0.84375        0.925925        0.421171        0        
C4        C        0.9062500000000001        0.925925        0.421171        0        
C4        C        0.9687500000000001        0.925925        0.421171        0        
C_FG        C        0.0        0.018519        0.578829        0.08        
C2        C        0.03125        0.074075        0.578829        0        
C3        C        0.0        0.092592        0.578829        0        
C4        C        0.03125        0.037037        0.578829        0        
C1        C        0.0        0.12963        0.578829        0        
C2        C        0.03125        0.185185        0.578829        0        
C_FG        C        0.0        0.203703        0.578829        0.08        
C4        C        0.03125        0.148148        0.578829        0        
C1        C        0.0        0.24074099999999998        0.578829        0        
C2        C        0.03125        0.296297        0.578829        0        
C3        C        0.0        0.314815        0.578829        0        
C4        C        0.03125        0.259259        0.578829        0        
C_FG        C        0.0        0.351852        0.578829        0.08        
C2        C        0.03125        0.407408        0.578829        0        
C3        C        0.0        0.425925        0.578829        0        
C4        C        0.03125        0.37037        0.578829        0        
C1        C        0.0        0.46296300000000007        0.578829        0        
C2        C        0.03125        0.518519        0.578829        0        
C_FG        C        0.0        0.537037        0.578829        0.08        
C4        C        0.03125        0.481481        0.578829        0        
C1        C        0.0        0.574075        0.578829        0        
C2        C        0.03125        0.62963        0.578829        0        
C3        C        0.0        0.648148        0.578829        0        
C4        C        0.03125        0.592592        0.578829        0        
C1        C        0.0625        0.018519        0.578829        0        
C2        C        0.09375        0.074075        0.578829        0        
C3        C        0.0625        0.092592        0.578829        0        
C4        C        0.09375        0.037037        0.578829        0        
C1        C        0.0625        0.12963        0.578829        0        
C2        C        0.09375        0.185185        0.578829        0        
C3        C        0.0625        0.203703        0.578829        0        
C4        C        0.09375        0.148148        0.578829        0        
C1        C        0.0625        0.24074099999999998        0.578829        0        
C2        C        0.09375        0.296297        0.578829        0        
C3        C        0.0625        0.314815        0.578829        0        
C4        C        0.09375        0.259259        0.578829        0        
C1        C        0.0625        0.351852        0.578829        0        
C2        C        0.09375        0.407408        0.578829        0        
C3        C        0.0625        0.425925        0.578829        0        
C4        C        0.09375        0.37037        0.578829        0        
C1        C        0.0625        0.46296300000000007        0.578829        0        
C2        C        0.09375        0.518519        0.578829        0        
C3        C        0.0625        0.537037        0.578829        0        
C4        C        0.09375        0.481481        0.578829        0        
C1        C        0.0625        0.574075        0.578829        0        
C2        C        0.09375        0.62963        0.578829        0        
C3        C        0.0625        0.648148        0.578829        0        
C4        C        0.09375        0.592592        0.578829        0        
C1        C        0.125        0.018519        0.578829        0        
C2        C        0.15625        0.074075        0.578829        0        
C3        C        0.125        0.092592        0.578829        0        
C4        C        0.15625        0.037037        0.578829        0        
C1        C        0.125        0.12963        0.578829        0        
C2        C        0.15625        0.185185        0.578829        0        
C3        C        0.125        0.203703        0.578829        0        
C4        C        0.15625        0.148148        0.578829        0        
C1        C        0.125        0.24074099999999998        0.578829        0        
C2        C        0.15625        0.296297        0.578829        0        
C3        C        0.125        0.314815        0.578829        0        
C4        C        0.15625        0.259259        0.578829        0        
C1        C        0.125        0.351852        0.578829        0        
C2        C        0.15625        0.407408        0.578829        0        
C3        C        0.125        0.425925        0.578829        0        
C4        C        0.15625        0.37037        0.578829        0        
C1        C        0.125        0.46296300000000007        0.578829        0        
C2        C        0.15625        0.518519        0.578829        0        
C3        C        0.125        0.537037        0.578829        0        
C4        C        0.15625        0.481481        0.578829        0        
C1        C        0.125        0.574075        0.578829        0        
C2        C        0.15625        0.62963        0.578829        0        
C3        C        0.125        0.648148        0.578829        0        
C4        C        0.15625        0.592592        0.578829        0        
C1        C        0.1875        0.018519        0.578829        0        
C2        C        0.21875        0.074075        0.578829        0        
C3        C        0.1875        0.092592        0.578829        0        
C4        C        0.21875        0.037037        0.578829        0        
C1        C        0.1875        0.12963        0.578829        0        
C2        C        0.21875        0.185185        0.578829        0        
C3        C        0.1875        0.203703        0.578829        0        
C4        C        0.21875        0.148148        0.578829        0        
C1        C        0.1875        0.24074099999999998        0.578829        0        
C2        C        0.21875        0.296297        0.578829        0        
C3        C        0.1875        0.314815        0.578829        0        
C4        C        0.21875        0.259259        0.578829        0        
C1        C        0.1875        0.351852        0.578829        0        
C2        C        0.21875        0.407408        0.578829        0        
C3        C        0.1875        0.425925        0.578829        0        
C4        C        0.21875        0.37037        0.578829        0        
C1        C        0.1875        0.46296300000000007        0.578829        0        
C2        C        0.21875        0.518519        0.578829        0        
C3        C        0.1875        0.537037        0.578829        0        
C4        C        0.21875        0.481481        0.578829        0        
C1        C        0.1875        0.574075        0.578829        0        
C2        C        0.21875        0.62963        0.578829        0        
C3        C        0.1875        0.648148        0.578829        0        
C4        C        0.21875        0.592592        0.578829        0        
C_FG        C        0.25        0.018519        0.578829        0.08        
C2        C        0.28125        0.074075        0.578829        0        
C3        C        0.25        0.092592        0.578829        0        
C4        C        0.28125        0.037037        0.578829        0        
C1        C        0.25        0.12963        0.578829        0        
C2        C        0.28125        0.185185        0.578829        0        
C_FG        C        0.25        0.203703        0.578829        0.08        
C4        C        0.28125        0.148148        0.578829        0        
C1        C        0.25        0.24074099999999998        0.578829        0        
C2        C        0.28125        0.296297        0.578829        0        
C3        C        0.25        0.314815        0.578829        0        
C4        C        0.28125        0.259259        0.578829        0        
C_FG        C        0.25        0.351852        0.578829        0.08        
C2        C        0.28125        0.407408        0.578829        0        
C3        C        0.25        0.425925        0.578829        0        
C4        C        0.28125        0.37037        0.578829        0        
C1        C        0.25        0.46296300000000007        0.578829        0        
C2        C        0.28125        0.518519        0.578829        0        
C_FG        C        0.25        0.537037        0.578829        0.08        
C4        C        0.28125        0.481481        0.578829        0        
C1        C        0.25        0.574075        0.578829        0        
C2        C        0.28125        0.62963        0.578829        0        
C3        C        0.25        0.648148        0.578829        0        
C4        C        0.28125        0.592592        0.578829        0        
C1        C        0.3125        0.018519        0.578829        0        
C2        C        0.34375        0.074075        0.578829        0        
C3        C        0.3125        0.092592        0.578829        0        
C4        C        0.34375        0.037037        0.578829        0        
C1        C        0.3125        0.12963        0.578829        0        
C2        C        0.34375        0.185185        0.578829        0        
C3        C        0.3125        0.203703        0.578829        0        
C4        C        0.34375        0.148148        0.578829        0        
C1        C        0.3125        0.24074099999999998        0.578829        0        
C2        C        0.34375        0.296297        0.578829        0        
C3        C        0.3125        0.314815        0.578829        0        
C4        C        0.34375        0.259259        0.578829        0        
C1        C        0.3125        0.351852        0.578829        0        
C2        C        0.34375        0.407408        0.578829        0        
C3        C        0.3125        0.425925        0.578829        0        
C4        C        0.34375        0.37037        0.578829        0        
C1        C        0.3125        0.46296300000000007        0.578829        0        
C2        C        0.34375        0.518519        0.578829        0        
C3        C        0.3125        0.537037        0.578829        0        
C4        C        0.34375        0.481481        0.578829        0        
C1        C        0.3125        0.574075        0.578829        0        
C2        C        0.34375        0.62963        0.578829        0        
C3        C        0.3125        0.648148        0.578829        0        
C4        C        0.34375        0.592592        0.578829        0        
C1        C        0.375        0.018519        0.578829        0        
C2        C        0.40625        0.074075        0.578829        0        
C3        C        0.375        0.092592        0.578829        0        
C4        C        0.40625        0.037037        0.578829        0        
C1        C        0.375        0.12963        0.578829        0        
C2        C        0.40625        0.185185        0.578829        0        
C3        C        0.375        0.203703        0.578829        0        
C4        C        0.40625        0.148148        0.578829        0        
C1        C        0.375        0.24074099999999998        0.578829        0        
C2        C        0.40625        0.296297        0.578829        0        
C3        C        0.375        0.314815        0.578829        0        
C4        C        0.40625        0.259259        0.578829        0        
C1        C        0.375        0.351852        0.578829        0        
C2        C        0.40625        0.407408        0.578829        0        
C3        C        0.375        0.425925        0.578829        0        
C4        C        0.40625        0.37037        0.578829        0        
C1        C        0.375        0.46296300000000007        0.578829        0        
C2        C        0.40625        0.518519        0.578829        0        
C3        C        0.375        0.537037        0.578829        0        
C4        C        0.40625        0.481481        0.578829        0        
C1        C        0.375        0.574075        0.578829        0        
C2        C        0.40625        0.62963        0.578829        0        
C3        C        0.375        0.648148        0.578829        0        
C4        C        0.40625        0.592592        0.578829        0        
C1        C        0.4375        0.018519        0.578829        0        
C2        C        0.46875        0.074075        0.578829        0        
C3        C        0.4375        0.092592        0.578829        0        
C4        C        0.46875        0.037037        0.578829        0        
C1        C        0.4375        0.12963        0.578829        0        
C2        C        0.46875        0.185185        0.578829        0        
C3        C        0.4375        0.203703        0.578829        0        
C4        C        0.46875        0.148148        0.578829        0        
C1        C        0.4375        0.24074099999999998        0.578829        0        
C2        C        0.46875        0.296297        0.578829        0        
C3        C        0.4375        0.314815        0.578829        0        
C4        C        0.46875        0.259259        0.578829        0        
C1        C        0.4375        0.351852        0.578829        0        
C2        C        0.46875        0.407408        0.578829        0        
C3        C        0.4375        0.425925        0.578829        0        
C4        C        0.46875        0.37037        0.578829        0        
C1        C        0.4375        0.46296300000000007        0.578829        0        
C2        C        0.46875        0.518519        0.578829        0        
C3        C        0.4375        0.537037        0.578829        0        
C4        C        0.46875        0.481481        0.578829        0        
C1        C        0.4375        0.574075        0.578829        0        
C2        C        0.46875        0.62963        0.578829        0        
C3        C        0.4375        0.648148        0.578829        0        
C4        C        0.46875        0.592592        0.578829        0        
C_FG        C        0.5        0.018519        0.578829        0.08        
C2        C        0.53125        0.074075        0.578829        0        
C3        C        0.5        0.092592        0.578829        0        
C4        C        0.53125        0.037037        0.578829        0        
C1        C        0.5        0.12963        0.578829        0        
C2        C        0.53125        0.185185        0.578829        0        
C_FG        C        0.5        0.203703        0.578829        0.08        
C4        C        0.53125        0.148148        0.578829        0        
C1        C        0.5        0.24074099999999998        0.578829        0        
C2        C        0.53125        0.296297        0.578829        0        
C3        C        0.5        0.314815        0.578829        0        
C4        C        0.53125        0.259259        0.578829        0        
C_FG        C        0.5        0.351852        0.578829        0.08        
C2        C        0.53125        0.407408        0.578829        0        
C3        C        0.5        0.425925        0.578829        0        
C4        C        0.53125        0.37037        0.578829        0        
C1        C        0.5        0.46296300000000007        0.578829        0        
C2        C        0.53125        0.518519        0.578829        0        
C_FG        C        0.5        0.537037        0.578829        0.08        
C4        C        0.53125        0.481481        0.578829        0        
C1        C        0.5        0.574075        0.578829        0        
C2        C        0.53125        0.62963        0.578829        0        
C3        C        0.5        0.648148        0.578829        0        
C4        C        0.53125        0.592592        0.578829        0        
C1        C        0.5625        0.018519        0.578829        0        
C2        C        0.59375        0.074075        0.578829        0        
C3        C        0.5625        0.092592        0.578829        0        
C4        C        0.59375        0.037037        0.578829        0        
C1        C        0.5625        0.12963        0.578829        0        
C2        C        0.59375        0.185185        0.578829        0        
C3        C        0.5625        0.203703        0.578829        0        
C4        C        0.59375        0.148148        0.578829        0        
C1        C        0.5625        0.24074099999999998        0.578829        0        
C2        C        0.59375        0.296297        0.578829        0        
C3        C        0.5625        0.314815        0.578829        0        
C4        C        0.59375        0.259259        0.578829        0        
C1        C        0.5625        0.351852        0.578829        0        
C2        C        0.59375        0.407408        0.578829        0        
C3        C        0.5625        0.425925        0.578829        0        
C4        C        0.59375        0.37037        0.578829        0        
C1        C        0.5625        0.46296300000000007        0.578829        0        
C2        C        0.59375        0.518519        0.578829        0        
C3        C        0.5625        0.537037        0.578829        0        
C4        C        0.59375        0.481481        0.578829        0        
C1        C        0.5625        0.574075        0.578829        0        
C2        C        0.59375        0.62963        0.578829        0        
C3        C        0.5625        0.648148        0.578829        0        
C4        C        0.59375        0.592592        0.578829        0        
C1        C        0.625        0.018519        0.578829        0        
C2        C        0.65625        0.074075        0.578829        0        
C3        C        0.625        0.092592        0.578829        0        
C4        C        0.65625        0.037037        0.578829        0        
C1        C        0.625        0.12963        0.578829        0        
C2        C        0.65625        0.185185        0.578829        0        
C3        C        0.625        0.203703        0.578829        0        
C4        C        0.65625        0.148148        0.578829        0        
C1        C        0.625        0.24074099999999998        0.578829        0        
C2        C        0.65625        0.296297        0.578829        0        
C3        C        0.625        0.314815        0.578829        0        
C4        C        0.65625        0.259259        0.578829        0        
C1        C        0.625        0.351852        0.578829        0        
C2        C        0.65625        0.407408        0.578829        0        
C3        C        0.625        0.425925        0.578829        0        
C4        C        0.65625        0.37037        0.578829        0        
C1        C        0.625        0.46296300000000007        0.578829        0        
C2        C        0.65625        0.518519        0.578829        0        
C3        C        0.625        0.537037        0.578829        0        
C4        C        0.65625        0.481481        0.578829        0        
C1        C        0.625        0.574075        0.578829        0        
C2        C        0.65625        0.62963        0.578829        0        
C3        C        0.625        0.648148        0.578829        0        
C4        C        0.65625        0.592592        0.578829        0        
C1        C        0.6875        0.018519        0.578829        0        
C2        C        0.71875        0.074075        0.578829        0        
C3        C        0.6875        0.092592        0.578829        0        
C4        C        0.71875        0.037037        0.578829        0        
C1        C        0.6875        0.12963        0.578829        0        
C2        C        0.71875        0.185185        0.578829        0        
C3        C        0.6875        0.203703        0.578829        0        
C4        C        0.71875        0.148148        0.578829        0        
C1        C        0.6875        0.24074099999999998        0.578829        0        
C2        C        0.71875        0.296297        0.578829        0        
C3        C        0.6875        0.314815        0.578829        0        
C4        C        0.71875        0.259259        0.578829        0        
C1        C        0.6875        0.351852        0.578829        0        
C2        C        0.71875        0.407408        0.578829        0        
C3        C        0.6875        0.425925        0.578829        0        
C4        C        0.71875        0.37037        0.578829        0        
C1        C        0.6875        0.46296300000000007        0.578829        0        
C2        C        0.71875        0.518519        0.578829        0        
C3        C        0.6875        0.537037        0.578829        0        
C4        C        0.71875        0.481481        0.578829        0        
C1        C        0.6875        0.574075        0.578829        0        
C2        C        0.71875        0.62963        0.578829        0        
C3        C        0.6875        0.648148        0.578829        0        
C4        C        0.71875        0.592592        0.578829        0        
C_FG        C        0.75        0.018519        0.578829        0.08        
C2        C        0.78125        0.074075        0.578829        0        
C3        C        0.75        0.092592        0.578829        0        
C4        C        0.78125        0.037037        0.578829        0        
C1        C        0.75        0.12963        0.578829        0        
C2        C        0.78125        0.185185        0.578829        0        
C_FG        C        0.75        0.203703        0.578829        0.08        
C4        C        0.78125        0.148148        0.578829        0        
C1        C        0.75        0.24074099999999998        0.578829        0        
C2        C        0.78125        0.296297        0.578829        0        
C3        C        0.75        0.314815        0.578829        0        
C4        C        0.78125        0.259259        0.578829        0        
C_FG        C        0.75        0.351852        0.578829        0.08        
C2        C        0.78125        0.407408        0.578829        0        
C3        C        0.75        0.425925        0.578829        0        
C4        C        0.78125        0.37037        0.578829        0        
C1        C        0.75        0.46296300000000007        0.578829        0        
C2        C        0.78125        0.518519        0.578829        0        
C_FG        C        0.75        0.537037        0.578829        0.08        
C4        C        0.78125        0.481481        0.578829        0        
C1        C        0.75        0.574075        0.578829        0        
C2        C        0.78125        0.62963        0.578829        0        
C3        C        0.75        0.648148        0.578829        0        
C4        C        0.78125        0.592592        0.578829        0        
C1        C        0.8125        0.018519        0.578829        0        
C2        C        0.84375        0.074075        0.578829        0        
C3        C        0.8125        0.092592        0.578829        0        
C4        C        0.84375        0.037037        0.578829        0        
C1        C        0.8125        0.12963        0.578829        0        
C2        C        0.84375        0.185185        0.578829        0        
C3        C        0.8125        0.203703        0.578829        0        
C4        C        0.84375        0.148148        0.578829        0        
C1        C        0.8125        0.24074099999999998        0.578829        0        
C2        C        0.84375        0.296297        0.578829        0        
C3        C        0.8125        0.314815        0.578829        0        
C4        C        0.84375        0.259259        0.578829        0        
C1        C        0.8125        0.351852        0.578829        0        
C2        C        0.84375        0.407408        0.578829        0        
C3        C        0.8125        0.425925        0.578829        0        
C4        C        0.84375        0.37037        0.578829        0        
C1        C        0.8125        0.46296300000000007        0.578829        0        
C2        C        0.84375        0.518519        0.578829        0        
C3        C        0.8125        0.537037        0.578829        0        
C4        C        0.84375        0.481481        0.578829        0        
C1        C        0.8125        0.574075        0.578829        0        
C2        C        0.84375        0.62963        0.578829        0        
C3        C        0.8125        0.648148        0.578829        0        
C4        C        0.84375        0.592592        0.578829        0        
C1        C        0.875        0.018519        0.578829        0        
C2        C        0.9062500000000001        0.074075        0.578829        0        
C3        C        0.875        0.092592        0.578829        0        
C4        C        0.9062500000000001        0.037037        0.578829        0        
C1        C        0.875        0.12963        0.578829        0        
C2        C        0.9062500000000001        0.185185        0.578829        0        
C3        C        0.875        0.203703        0.578829        0        
C4        C        0.9062500000000001        0.148148        0.578829        0        
C1        C        0.875        0.24074099999999998        0.578829        0        
C2        C        0.9062500000000001        0.296297        0.578829        0        
C3        C        0.875        0.314815        0.578829        0        
C4        C        0.9062500000000001        0.259259        0.578829        0        
C1        C        0.875        0.351852        0.578829        0        
C2        C        0.9062500000000001        0.407408        0.578829        0        
C3        C        0.875        0.425925        0.578829        0        
C4        C        0.9062500000000001        0.37037        0.578829        0        
C1        C        0.875        0.46296300000000007        0.578829        0        
C2        C        0.9062500000000001        0.518519        0.578829        0        
C3        C        0.875        0.537037        0.578829        0        
C4        C        0.9062500000000001        0.481481        0.578829        0        
C1        C        0.875        0.574075        0.578829        0        
C2        C        0.9062500000000001        0.62963        0.578829        0        
C3        C        0.875        0.648148        0.578829        0        
C4        C        0.9062500000000001        0.592592        0.578829        0        
C1        C        0.9375        0.018519        0.578829        0        
C2        C        0.9687500000000001        0.074075        0.578829        0        
C3        C        0.9375        0.092592        0.578829        0        
C4        C        0.9687500000000001        0.037037        0.578829        0        
C1        C        0.9375        0.12963        0.578829        0        
C2        C        0.9687500000000001        0.185185        0.578829        0        
C3        C        0.9375        0.203703        0.578829        0        
C4        C        0.9687500000000001        0.148148        0.578829        0        
C1        C        0.9375        0.24074099999999998        0.578829        0        
C2        C        0.9687500000000001        0.296297        0.578829        0        
C3        C        0.9375        0.314815        0.578829        0        
C4        C        0.9687500000000001        0.259259        0.578829        0        
C1        C        0.9375        0.351852        0.578829        0        
C2        C        0.9687500000000001        0.407408        0.578829        0        
C3        C        0.9375        0.425925        0.578829        0        
C4        C        0.9687500000000001        0.37037        0.578829        0        
C1        C        0.9375        0.46296300000000007        0.578829        0        
C2        C        0.9687500000000001        0.518519        0.578829        0        
C3        C        0.9375        0.537037        0.578829        0        
C4        C        0.9687500000000001        0.481481        0.578829        0        
C1        C        0.9375        0.574075        0.578829        0        
C2        C        0.9687500000000001        0.62963        0.578829        0        
C3        C        0.9375        0.648148        0.578829        0        
C4        C        0.9687500000000001        0.592592        0.578829        0        
C_FG        C        0.0        0.685186        0.578829        0.08        
C1        C        0.0625        0.685186        0.578829        0        
C1        C        0.125        0.685186        0.578829        0        
C1        C        0.1875        0.685186        0.578829        0        
C_FG        C        0.25        0.685186        0.578829        0.08        
C1        C        0.3125        0.685186        0.578829        0        
C1        C        0.375        0.685186        0.578829        0        
C1        C        0.4375        0.685186        0.578829        0        
C_FG        C        0.5        0.685186        0.578829        0.08        
C1        C        0.5625        0.685186        0.578829        0        
C1        C        0.625        0.685186        0.578829        0        
C1        C        0.6875        0.685186        0.578829        0        
C_FG        C        0.75        0.685186        0.578829        0.08        
C1        C        0.8125        0.685186        0.578829        0        
C1        C        0.875        0.685186        0.578829        0        
C1        C        0.9375        0.685186        0.578829        0        
C2        C        0.03125        0.740741        0.578829        0        
C2        C        0.09375        0.740741        0.578829        0        
C2        C        0.15625        0.740741        0.578829        0        
C2        C        0.21875        0.740741        0.578829        0        
C2        C        0.28125        0.740741        0.578829        0        
C2        C        0.34375        0.740741        0.578829        0        
C2        C        0.40625        0.740741        0.578829        0        
C2        C        0.46875        0.740741        0.578829        0        
C2        C        0.53125        0.740741        0.578829        0        
C2        C        0.59375        0.740741        0.578829        0        
C2        C        0.65625        0.740741        0.578829        0        
C2        C        0.71875        0.740741        0.578829        0        
C2        C        0.78125        0.740741        0.578829        0        
C2        C        0.84375        0.740741        0.578829        0        
C2        C        0.9062500000000001        0.740741        0.578829        0        
C2        C        0.9687500000000001        0.740741        0.578829        0        
C3        C        0.0        0.759259        0.578829        0        
C3        C        0.0625        0.759259        0.578829        0        
C3        C        0.125        0.759259        0.578829        0        
C3        C        0.1875        0.759259        0.578829        0        
C3        C        0.25        0.759259        0.578829        0        
C3        C        0.3125        0.759259        0.578829        0        
C3        C        0.375        0.759259        0.578829        0        
C3        C        0.4375        0.759259        0.578829        0        
C3        C        0.5        0.759259        0.578829        0        
C3        C        0.5625        0.759259        0.578829        0        
C3        C        0.625        0.759259        0.578829        0        
C3        C        0.6875        0.759259        0.578829        0        
C3        C        0.75        0.759259        0.578829        0        
C3        C        0.8125        0.759259        0.578829        0        
C3        C        0.875        0.759259        0.578829        0        
C3        C        0.9375        0.759259        0.578829        0        
C4        C        0.03125        0.703703        0.578829        0        
C4        C        0.09375        0.703703        0.578829        0        
C4        C        0.15625        0.703703        0.578829        0        
C4        C        0.21875        0.703703        0.578829        0        
C4        C        0.28125        0.703703        0.578829        0        
C4        C        0.34375        0.703703        0.578829        0        
C4        C        0.40625        0.703703        0.578829        0        
C4        C        0.46875        0.703703        0.578829        0        
C4        C        0.53125        0.703703        0.578829        0        
C4        C        0.59375        0.703703        0.578829        0        
C4        C        0.65625        0.703703        0.578829        0        
C4        C        0.71875        0.703703        0.578829        0        
C4        C        0.78125        0.703703        0.578829        0        
C4        C        0.84375        0.703703        0.578829        0        
C4        C        0.9062500000000001        0.703703        0.578829        0        
C4        C        0.9687500000000001        0.703703        0.578829        0        
C1        C        0.0        0.796297        0.578829        0        
C1        C        0.0625        0.796297        0.578829        0        
C1        C        0.125        0.796297        0.578829        0        
C1        C        0.1875        0.796297        0.578829        0        
C1        C        0.25        0.796297        0.578829        0        
C1        C        0.3125        0.796297        0.578829        0        
C1        C        0.375        0.796297        0.578829        0        
C1        C        0.4375        0.796297        0.578829        0        
C1        C        0.5        0.796297        0.578829        0        
C1        C        0.5625        0.796297        0.578829        0        
C1        C        0.625        0.796297        0.578829        0        
C1        C        0.6875        0.796297        0.578829        0        
C1        C        0.75        0.796297        0.578829        0        
C1        C        0.8125        0.796297        0.578829        0        
C1        C        0.875        0.796297        0.578829        0        
C1        C        0.9375        0.796297        0.578829        0        
C2        C        0.03125        0.851852        0.578829        0        
C2        C        0.09375        0.851852        0.578829        0        
C2        C        0.15625        0.851852        0.578829        0        
C2        C        0.21875        0.851852        0.578829        0        
C2        C        0.28125        0.851852        0.578829        0        
C2        C        0.34375        0.851852        0.578829        0        
C2        C        0.40625        0.851852        0.578829        0        
C2        C        0.46875        0.851852        0.578829        0        
C2        C        0.53125        0.851852        0.578829        0        
C2        C        0.59375        0.851852        0.578829        0        
C2        C        0.65625        0.851852        0.578829        0        
C2        C        0.71875        0.851852        0.578829        0        
C2        C        0.78125        0.851852        0.578829        0        
C2        C        0.84375        0.851852        0.578829        0        
C2        C        0.9062500000000001        0.851852        0.578829        0        
C2        C        0.9687500000000001        0.851852        0.578829        0        
C_FG        C        0.0        0.87037        0.578829        0.08        
C3        C        0.0625        0.87037        0.578829        0        
C3        C        0.125        0.87037        0.578829        0        
C3        C        0.1875        0.87037        0.578829        0        
C_FG        C        0.25        0.87037        0.578829        0.08        
C3        C        0.3125        0.87037        0.578829        0        
C3        C        0.375        0.87037        0.578829        0        
C3        C        0.4375        0.87037        0.578829        0        
C_FG        C        0.5        0.87037        0.578829        0.08        
C3        C        0.5625        0.87037        0.578829        0        
C3        C        0.625        0.87037        0.578829        0        
C3        C        0.6875        0.87037        0.578829        0        
C_FG        C        0.75        0.87037        0.578829        0.08        
C3        C        0.8125        0.87037        0.578829        0        
C3        C        0.875        0.87037        0.578829        0        
C3        C        0.9375        0.87037        0.578829        0        
C4        C        0.03125        0.814814        0.578829        0        
C4        C        0.09375        0.814814        0.578829        0        
C4        C        0.15625        0.814814        0.578829        0        
C4        C        0.21875        0.814814        0.578829        0        
C4        C        0.28125        0.814814        0.578829        0        
C4        C        0.34375        0.814814        0.578829        0        
C4        C        0.40625        0.814814        0.578829        0        
C4        C        0.46875        0.814814        0.578829        0        
C4        C        0.53125        0.814814        0.578829        0        
C4        C        0.59375        0.814814        0.578829        0        
C4        C        0.65625        0.814814        0.578829        0        
C4        C        0.71875        0.814814        0.578829        0        
C4        C        0.78125        0.814814        0.578829        0        
C4        C        0.84375        0.814814        0.578829        0        
C4        C        0.9062500000000001        0.814814        0.578829        0        
C4        C        0.9687500000000001        0.814814        0.578829        0        
C1        C        0.0        0.907408        0.578829        0        
C1        C        0.0625        0.907408        0.578829        0        
C1        C        0.125        0.907408        0.578829        0        
C1        C        0.1875        0.907408        0.578829        0        
C1        C        0.25        0.907408        0.578829        0        
C1        C        0.3125        0.907408        0.578829        0        
C1        C        0.375        0.907408        0.578829        0        
C1        C        0.4375        0.907408        0.578829        0        
C1        C        0.5        0.907408        0.578829        0        
C1        C        0.5625        0.907408        0.578829        0        
C1        C        0.625        0.907408        0.578829        0        
C1        C        0.6875        0.907408        0.578829        0        
C1        C        0.75        0.907408        0.578829        0        
C1        C        0.8125        0.907408        0.578829        0        
C1        C        0.875        0.907408        0.578829        0        
C1        C        0.9375        0.907408        0.578829        0        
C2        C        0.03125        0.962963        0.578829        0        
C2        C        0.09375        0.962963        0.578829        0        
C2        C        0.15625        0.962963        0.578829        0        
C2        C        0.21875        0.962963        0.578829        0        
C2        C        0.28125        0.962963        0.578829        0        
C2        C        0.34375        0.962963        0.578829        0        
C2        C        0.40625        0.962963        0.578829        0        
C2        C        0.46875        0.962963        0.578829        0        
C2        C        0.53125        0.962963        0.578829        0        
C2        C        0.59375        0.962963        0.578829        0        
C2        C        0.65625        0.962963        0.578829        0        
C2        C        0.71875        0.962963        0.578829        0        
C2        C        0.78125        0.962963        0.578829        0        
C2        C        0.84375        0.962963        0.578829        0        
C2        C        0.9062500000000001        0.962963        0.578829        0        
C2        C        0.9687500000000001        0.962963        0.578829        0        
C3        C        0.0        0.9814809999999999        0.578829        0        
C3        C        0.0625        0.9814809999999999        0.578829        0        
C3        C        0.125        0.9814809999999999        0.578829        0        
C3        C        0.1875        0.9814809999999999        0.578829        0        
C3        C        0.25        0.9814809999999999        0.578829        0        
C3        C        0.3125        0.9814809999999999        0.578829        0        
C3        C        0.375        0.9814809999999999        0.578829        0        
C3        C        0.4375        0.9814809999999999        0.578829        0        
C3        C        0.5        0.9814809999999999        0.578829        0        
C3        C        0.5625        0.9814809999999999        0.578829        0        
C3        C        0.625        0.9814809999999999        0.578829        0        
C3        C        0.6875        0.9814809999999999        0.578829        0        
C3        C        0.75        0.9814809999999999        0.578829        0        
C3        C        0.8125        0.9814809999999999        0.578829        0        
C3        C        0.875        0.9814809999999999        0.578829        0        
C3        C        0.9375        0.9814809999999999        0.578829        0        
C4        C        0.03125        0.925925        0.578829        0        
C4        C        0.09375        0.925925        0.578829        0        
C4        C        0.15625        0.925925        0.578829        0        
C4        C        0.21875        0.925925        0.578829        0        
C4        C        0.28125        0.925925        0.578829        0        
C4        C        0.34375        0.925925        0.578829        0        
C4        C        0.40625        0.925925        0.578829        0        
C4        C        0.46875        0.925925        0.578829        0        
C4        C        0.53125        0.925925        0.578829        0        
C4        C        0.59375        0.925925        0.578829        0        
C4        C        0.65625        0.925925        0.578829        0        
C4        C        0.71875        0.925925        0.578829        0        
C4        C        0.78125        0.925925        0.578829        0        
C4        C        0.84375        0.925925        0.578829        0        
C4        C        0.9062500000000001        0.925925        0.578829        0        
C4        C        0.9687500000000001        0.925925        0.578829        0        
C1        C        0.0        0.018519        0.654279        0        
C2        C        0.03125        0.074075        0.654279        0        
C3        C        0.0        0.092592        0.654279        0        
C4        C        0.03125        0.037037        0.654279        0        
C1        C        0.0        0.12963        0.654279        0        
C2        C        0.03125        0.185185        0.654279        0        
C3        C        0.0        0.203703        0.654279        0        
C4        C        0.03125        0.148148        0.654279        0        
C1        C        0.0        0.24074099999999998        0.654279        0        
C2        C        0.03125        0.296297        0.654279        0        
C3        C        0.0        0.314815        0.654279        0        
C4        C        0.03125        0.259259        0.654279        0        
C1        C        0.0        0.351852        0.654279        0        
C2        C        0.03125        0.407408        0.654279        0        
C3        C        0.0        0.425925        0.654279        0        
C4        C        0.03125        0.37037        0.654279        0        
C1        C        0.0        0.46296300000000007        0.654279        0        
C2        C        0.03125        0.518519        0.654279        0        
C3        C        0.0        0.537037        0.654279        0        
C4        C        0.03125        0.481481        0.654279        0        
C1        C        0.0        0.574075        0.654279        0        
C2        C        0.03125        0.62963        0.654279        0        
C3        C        0.0        0.648148        0.654279        0        
C4        C        0.03125        0.592592        0.654279        0        
C1        C        0.0625        0.018519        0.654279        0        
C2        C        0.09375        0.074075        0.654279        0        
C3        C        0.0625        0.092592        0.654279        0        
C4        C        0.09375        0.037037        0.654279        0        
C1        C        0.0625        0.12963        0.654279        0        
C2        C        0.09375        0.185185        0.654279        0        
C3        C        0.0625        0.203703        0.654279        0        
C4        C        0.09375        0.148148        0.654279        0        
C1        C        0.0625        0.24074099999999998        0.654279        0        
C2        C        0.09375        0.296297        0.654279        0        
C3        C        0.0625        0.314815        0.654279        0        
C4        C        0.09375        0.259259        0.654279        0        
C1        C        0.0625        0.351852        0.654279        0        
C2        C        0.09375        0.407408        0.654279        0        
C3        C        0.0625        0.425925        0.654279        0        
C4        C        0.09375        0.37037        0.654279        0        
C1        C        0.0625        0.46296300000000007        0.654279        0        
C2        C        0.09375        0.518519        0.654279        0        
C3        C        0.0625        0.537037        0.654279        0        
C4        C        0.09375        0.481481        0.654279        0        
C1        C        0.0625        0.574075        0.654279        0        
C2        C        0.09375        0.62963        0.654279        0        
C3        C        0.0625        0.648148        0.654279        0        
C4        C        0.09375        0.592592        0.654279        0        
C1        C        0.125        0.018519        0.654279        0        
C2        C        0.15625        0.074075        0.654279        0        
C3        C        0.125        0.092592        0.654279        0        
C4        C        0.15625        0.037037        0.654279        0        
C1        C        0.125        0.12963        0.654279        0        
C2        C        0.15625        0.185185        0.654279        0        
C3        C        0.125        0.203703        0.654279        0        
C4        C        0.15625        0.148148        0.654279        0        
C1        C        0.125        0.24074099999999998        0.654279        0        
C2        C        0.15625        0.296297        0.654279        0        
C3        C        0.125        0.314815        0.654279        0        
C4        C        0.15625        0.259259        0.654279        0        
C1        C        0.125        0.351852        0.654279        0        
C2        C        0.15625        0.407408        0.654279        0        
C3        C        0.125        0.425925        0.654279        0        
C4        C        0.15625        0.37037        0.654279        0        
C1        C        0.125        0.46296300000000007        0.654279        0        
C2        C        0.15625        0.518519        0.654279        0        
C3        C        0.125        0.537037        0.654279        0        
C4        C        0.15625        0.481481        0.654279        0        
C1        C        0.125        0.574075        0.654279        0        
C2        C        0.15625        0.62963        0.654279        0        
C3        C        0.125        0.648148        0.654279        0        
C4        C        0.15625        0.592592        0.654279        0        
C1        C        0.1875        0.018519        0.654279        0        
C2        C        0.21875        0.074075        0.654279        0        
C3        C        0.1875        0.092592        0.654279        0        
C4        C        0.21875        0.037037        0.654279        0        
C1        C        0.1875        0.12963        0.654279        0        
C2        C        0.21875        0.185185        0.654279        0        
C3        C        0.1875        0.203703        0.654279        0        
C4        C        0.21875        0.148148        0.654279        0        
C1        C        0.1875        0.24074099999999998        0.654279        0        
C2        C        0.21875        0.296297        0.654279        0        
C3        C        0.1875        0.314815        0.654279        0        
C4        C        0.21875        0.259259        0.654279        0        
C1        C        0.1875        0.351852        0.654279        0        
C2        C        0.21875        0.407408        0.654279        0        
C3        C        0.1875        0.425925        0.654279        0        
C4        C        0.21875        0.37037        0.654279        0        
C1        C        0.1875        0.46296300000000007        0.654279        0        
C2        C        0.21875        0.518519        0.654279        0        
C3        C        0.1875        0.537037        0.654279        0        
C4        C        0.21875        0.481481        0.654279        0        
C1        C        0.1875        0.574075        0.654279        0        
C2        C        0.21875        0.62963        0.654279        0        
C3        C        0.1875        0.648148        0.654279        0        
C4        C        0.21875        0.592592        0.654279        0        
C1        C        0.25        0.018519        0.654279        0        
C2        C        0.28125        0.074075        0.654279        0        
C3        C        0.25        0.092592        0.654279        0        
C4        C        0.28125        0.037037        0.654279        0        
C1        C        0.25        0.12963        0.654279        0        
C2        C        0.28125        0.185185        0.654279        0        
C3        C        0.25        0.203703        0.654279        0        
C4        C        0.28125        0.148148        0.654279        0        
C1        C        0.25        0.24074099999999998        0.654279        0        
C2        C        0.28125        0.296297        0.654279        0        
C3        C        0.25        0.314815        0.654279        0        
C4        C        0.28125        0.259259        0.654279        0        
C1        C        0.25        0.351852        0.654279        0        
C2        C        0.28125        0.407408        0.654279        0        
C3        C        0.25        0.425925        0.654279        0        
C4        C        0.28125        0.37037        0.654279        0        
C1        C        0.25        0.46296300000000007        0.654279        0        
C2        C        0.28125        0.518519        0.654279        0        
C3        C        0.25        0.537037        0.654279        0        
C4        C        0.28125        0.481481        0.654279        0        
C1        C        0.25        0.574075        0.654279        0        
C2        C        0.28125        0.62963        0.654279        0        
C3        C        0.25        0.648148        0.654279        0        
C4        C        0.28125        0.592592        0.654279        0        
C1        C        0.3125        0.018519        0.654279        0        
C2        C        0.34375        0.074075        0.654279        0        
C3        C        0.3125        0.092592        0.654279        0        
C4        C        0.34375        0.037037        0.654279        0        
C1        C        0.3125        0.12963        0.654279        0        
C2        C        0.34375        0.185185        0.654279        0        
C3        C        0.3125        0.203703        0.654279        0        
C4        C        0.34375        0.148148        0.654279        0        
C1        C        0.3125        0.24074099999999998        0.654279        0        
C2        C        0.34375        0.296297        0.654279        0        
C3        C        0.3125        0.314815        0.654279        0        
C4        C        0.34375        0.259259        0.654279        0        
C1        C        0.3125        0.351852        0.654279        0        
C2        C        0.34375        0.407408        0.654279        0        
C3        C        0.3125        0.425925        0.654279        0        
C4        C        0.34375        0.37037        0.654279        0        
C1        C        0.3125        0.46296300000000007        0.654279        0        
C2        C        0.34375        0.518519        0.654279        0        
C3        C        0.3125        0.537037        0.654279        0        
C4        C        0.34375        0.481481        0.654279        0        
C1        C        0.3125        0.574075        0.654279        0        
C2        C        0.34375        0.62963        0.654279        0        
C3        C        0.3125        0.648148        0.654279        0        
C4        C        0.34375        0.592592        0.654279        0        
C1        C        0.375        0.018519        0.654279        0        
C2        C        0.40625        0.074075        0.654279        0        
C3        C        0.375        0.092592        0.654279        0        
C4        C        0.40625        0.037037        0.654279        0        
C1        C        0.375        0.12963        0.654279        0        
C2        C        0.40625        0.185185        0.654279        0        
C3        C        0.375        0.203703        0.654279        0        
C4        C        0.40625        0.148148        0.654279        0        
C1        C        0.375        0.24074099999999998        0.654279        0        
C2        C        0.40625        0.296297        0.654279        0        
C3        C        0.375        0.314815        0.654279        0        
C4        C        0.40625        0.259259        0.654279        0        
C1        C        0.375        0.351852        0.654279        0        
C2        C        0.40625        0.407408        0.654279        0        
C3        C        0.375        0.425925        0.654279        0        
C4        C        0.40625        0.37037        0.654279        0        
C1        C        0.375        0.46296300000000007        0.654279        0        
C2        C        0.40625        0.518519        0.654279        0        
C3        C        0.375        0.537037        0.654279        0        
C4        C        0.40625        0.481481        0.654279        0        
C1        C        0.375        0.574075        0.654279        0        
C2        C        0.40625        0.62963        0.654279        0        
C3        C        0.375        0.648148        0.654279        0        
C4        C        0.40625        0.592592        0.654279        0        
C1        C        0.4375        0.018519        0.654279        0        
C2        C        0.46875        0.074075        0.654279        0        
C3        C        0.4375        0.092592        0.654279        0        
C4        C        0.46875        0.037037        0.654279        0        
C1        C        0.4375        0.12963        0.654279        0        
C2        C        0.46875        0.185185        0.654279        0        
C3        C        0.4375        0.203703        0.654279        0        
C4        C        0.46875        0.148148        0.654279        0        
C1        C        0.4375        0.24074099999999998        0.654279        0        
C2        C        0.46875        0.296297        0.654279        0        
C3        C        0.4375        0.314815        0.654279        0        
C4        C        0.46875        0.259259        0.654279        0        
C1        C        0.4375        0.351852        0.654279        0        
C2        C        0.46875        0.407408        0.654279        0        
C3        C        0.4375        0.425925        0.654279        0        
C4        C        0.46875        0.37037        0.654279        0        
C1        C        0.4375        0.46296300000000007        0.654279        0        
C2        C        0.46875        0.518519        0.654279        0        
C3        C        0.4375        0.537037        0.654279        0        
C4        C        0.46875        0.481481        0.654279        0        
C1        C        0.4375        0.574075        0.654279        0        
C2        C        0.46875        0.62963        0.654279        0        
C3        C        0.4375        0.648148        0.654279        0        
C4        C        0.46875        0.592592        0.654279        0        
C1        C        0.5        0.018519        0.654279        0        
C2        C        0.53125        0.074075        0.654279        0        
C3        C        0.5        0.092592        0.654279        0        
C4        C        0.53125        0.037037        0.654279        0        
C1        C        0.5        0.12963        0.654279        0        
C2        C        0.53125        0.185185        0.654279        0        
C3        C        0.5        0.203703        0.654279        0        
C4        C        0.53125        0.148148        0.654279        0        
C1        C        0.5        0.24074099999999998        0.654279        0        
C2        C        0.53125        0.296297        0.654279        0        
C3        C        0.5        0.314815        0.654279        0        
C4        C        0.53125        0.259259        0.654279        0        
C1        C        0.5        0.351852        0.654279        0        
C2        C        0.53125        0.407408        0.654279        0        
C3        C        0.5        0.425925        0.654279        0        
C4        C        0.53125        0.37037        0.654279        0        
C1        C        0.5        0.46296300000000007        0.654279        0        
C2        C        0.53125        0.518519        0.654279        0        
C3        C        0.5        0.537037        0.654279        0        
C4        C        0.53125        0.481481        0.654279        0        
C1        C        0.5        0.574075        0.654279        0        
C2        C        0.53125        0.62963        0.654279        0        
C3        C        0.5        0.648148        0.654279        0        
C4        C        0.53125        0.592592        0.654279        0        
C1        C        0.5625        0.018519        0.654279        0        
C2        C        0.59375        0.074075        0.654279        0        
C3        C        0.5625        0.092592        0.654279        0        
C4        C        0.59375        0.037037        0.654279        0        
C1        C        0.5625        0.12963        0.654279        0        
C2        C        0.59375        0.185185        0.654279        0        
C3        C        0.5625        0.203703        0.654279        0        
C4        C        0.59375        0.148148        0.654279        0        
C1        C        0.5625        0.24074099999999998        0.654279        0        
C2        C        0.59375        0.296297        0.654279        0        
C3        C        0.5625        0.314815        0.654279        0        
C4        C        0.59375        0.259259        0.654279        0        
C1        C        0.5625        0.351852        0.654279        0        
C2        C        0.59375        0.407408        0.654279        0        
C3        C        0.5625        0.425925        0.654279        0        
C4        C        0.59375        0.37037        0.654279        0        
C1        C        0.5625        0.46296300000000007        0.654279        0        
C2        C        0.59375        0.518519        0.654279        0        
C3        C        0.5625        0.537037        0.654279        0        
C4        C        0.59375        0.481481        0.654279        0        
C1        C        0.5625        0.574075        0.654279        0        
C2        C        0.59375        0.62963        0.654279        0        
C3        C        0.5625        0.648148        0.654279        0        
C4        C        0.59375        0.592592        0.654279        0        
C1        C        0.625        0.018519        0.654279        0        
C2        C        0.65625        0.074075        0.654279        0        
C3        C        0.625        0.092592        0.654279        0        
C4        C        0.65625        0.037037        0.654279        0        
C1        C        0.625        0.12963        0.654279        0        
C2        C        0.65625        0.185185        0.654279        0        
C3        C        0.625        0.203703        0.654279        0        
C4        C        0.65625        0.148148        0.654279        0        
C1        C        0.625        0.24074099999999998        0.654279        0        
C2        C        0.65625        0.296297        0.654279        0        
C3        C        0.625        0.314815        0.654279        0        
C4        C        0.65625        0.259259        0.654279        0        
C1        C        0.625        0.351852        0.654279        0        
C2        C        0.65625        0.407408        0.654279        0        
C3        C        0.625        0.425925        0.654279        0        
C4        C        0.65625        0.37037        0.654279        0        
C1        C        0.625        0.46296300000000007        0.654279        0        
C2        C        0.65625        0.518519        0.654279        0        
C3        C        0.625        0.537037        0.654279        0        
C4        C        0.65625        0.481481        0.654279        0        
C1        C        0.625        0.574075        0.654279        0        
C2        C        0.65625        0.62963        0.654279        0        
C3        C        0.625        0.648148        0.654279        0        
C4        C        0.65625        0.592592        0.654279        0        
C1        C        0.6875        0.018519        0.654279        0        
C2        C        0.71875        0.074075        0.654279        0        
C3        C        0.6875        0.092592        0.654279        0        
C4        C        0.71875        0.037037        0.654279        0        
C1        C        0.6875        0.12963        0.654279        0        
C2        C        0.71875        0.185185        0.654279        0        
C3        C        0.6875        0.203703        0.654279        0        
C4        C        0.71875        0.148148        0.654279        0        
C1        C        0.6875        0.24074099999999998        0.654279        0        
C2        C        0.71875        0.296297        0.654279        0        
C3        C        0.6875        0.314815        0.654279        0        
C4        C        0.71875        0.259259        0.654279        0        
C1        C        0.6875        0.351852        0.654279        0        
C2        C        0.71875        0.407408        0.654279        0        
C3        C        0.6875        0.425925        0.654279        0        
C4        C        0.71875        0.37037        0.654279        0        
C1        C        0.6875        0.46296300000000007        0.654279        0        
C2        C        0.71875        0.518519        0.654279        0        
C3        C        0.6875        0.537037        0.654279        0        
C4        C        0.71875        0.481481        0.654279        0        
C1        C        0.6875        0.574075        0.654279        0        
C2        C        0.71875        0.62963        0.654279        0        
C3        C        0.6875        0.648148        0.654279        0        
C4        C        0.71875        0.592592        0.654279        0        
C1        C        0.75        0.018519        0.654279        0        
C2        C        0.78125        0.074075        0.654279        0        
C3        C        0.75        0.092592        0.654279        0        
C4        C        0.78125        0.037037        0.654279        0        
C1        C        0.75        0.12963        0.654279        0        
C2        C        0.78125        0.185185        0.654279        0        
C3        C        0.75        0.203703        0.654279        0        
C4        C        0.78125        0.148148        0.654279        0        
C1        C        0.75        0.24074099999999998        0.654279        0        
C2        C        0.78125        0.296297        0.654279        0        
C3        C        0.75        0.314815        0.654279        0        
C4        C        0.78125        0.259259        0.654279        0        
C1        C        0.75        0.351852        0.654279        0        
C2        C        0.78125        0.407408        0.654279        0        
C3        C        0.75        0.425925        0.654279        0        
C4        C        0.78125        0.37037        0.654279        0        
C1        C        0.75        0.46296300000000007        0.654279        0        
C2        C        0.78125        0.518519        0.654279        0        
C3        C        0.75        0.537037        0.654279        0        
C4        C        0.78125        0.481481        0.654279        0        
C1        C        0.75        0.574075        0.654279        0        
C2        C        0.78125        0.62963        0.654279        0        
C3        C        0.75        0.648148        0.654279        0        
C4        C        0.78125        0.592592        0.654279        0        
C1        C        0.8125        0.018519        0.654279        0        
C2        C        0.84375        0.074075        0.654279        0        
C3        C        0.8125        0.092592        0.654279        0        
C4        C        0.84375        0.037037        0.654279        0        
C1        C        0.8125        0.12963        0.654279        0        
C2        C        0.84375        0.185185        0.654279        0        
C3        C        0.8125        0.203703        0.654279        0        
C4        C        0.84375        0.148148        0.654279        0        
C1        C        0.8125        0.24074099999999998        0.654279        0        
C2        C        0.84375        0.296297        0.654279        0        
C3        C        0.8125        0.314815        0.654279        0        
C4        C        0.84375        0.259259        0.654279        0        
C1        C        0.8125        0.351852        0.654279        0        
C2        C        0.84375        0.407408        0.654279        0        
C3        C        0.8125        0.425925        0.654279        0        
C4        C        0.84375        0.37037        0.654279        0        
C1        C        0.8125        0.46296300000000007        0.654279        0        
C2        C        0.84375        0.518519        0.654279        0        
C3        C        0.8125        0.537037        0.654279        0        
C4        C        0.84375        0.481481        0.654279        0        
C1        C        0.8125        0.574075        0.654279        0        
C2        C        0.84375        0.62963        0.654279        0        
C3        C        0.8125        0.648148        0.654279        0        
C4        C        0.84375        0.592592        0.654279        0        
C1        C        0.875        0.018519        0.654279        0        
C2        C        0.9062500000000001        0.074075        0.654279        0        
C3        C        0.875        0.092592        0.654279        0        
C4        C        0.9062500000000001        0.037037        0.654279        0        
C1        C        0.875        0.12963        0.654279        0        
C2        C        0.9062500000000001        0.185185        0.654279        0        
C3        C        0.875        0.203703        0.654279        0        
C4        C        0.9062500000000001        0.148148        0.654279        0        
C1        C        0.875        0.24074099999999998        0.654279        0        
C2        C        0.9062500000000001        0.296297        0.654279        0        
C3        C        0.875        0.314815        0.654279        0        
C4        C        0.9062500000000001        0.259259        0.654279        0        
C1        C        0.875        0.351852        0.654279        0        
C2        C        0.9062500000000001        0.407408        0.654279        0        
C3        C        0.875        0.425925        0.654279        0        
C4        C        0.9062500000000001        0.37037        0.654279        0        
C1        C        0.875        0.46296300000000007        0.654279        0        
C2        C        0.9062500000000001        0.518519        0.654279        0        
C3        C        0.875        0.537037        0.654279        0        
C4        C        0.9062500000000001        0.481481        0.654279        0        
C1        C        0.875        0.574075        0.654279        0        
C2        C        0.9062500000000001        0.62963        0.654279        0        
C3        C        0.875        0.648148        0.654279        0        
C4        C        0.9062500000000001        0.592592        0.654279        0        
C1        C        0.9375        0.018519        0.654279        0        
C2        C        0.9687500000000001        0.074075        0.654279        0        
C3        C        0.9375        0.092592        0.654279        0        
C4        C        0.9687500000000001        0.037037        0.654279        0        
C1        C        0.9375        0.12963        0.654279        0        
C2        C        0.9687500000000001        0.185185        0.654279        0        
C3        C        0.9375        0.203703        0.654279        0        
C4        C        0.9687500000000001        0.148148        0.654279        0        
C1        C        0.9375        0.24074099999999998        0.654279        0        
C2        C        0.9687500000000001        0.296297        0.654279        0        
C3        C        0.9375        0.314815        0.654279        0        
C4        C        0.9687500000000001        0.259259        0.654279        0        
C1        C        0.9375        0.351852        0.654279        0        
C2        C        0.9687500000000001        0.407408        0.654279        0        
C3        C        0.9375        0.425925        0.654279        0        
C4        C        0.9687500000000001        0.37037        0.654279        0        
C1        C        0.9375        0.46296300000000007        0.654279        0        
C2        C        0.9687500000000001        0.518519        0.654279        0        
C3        C        0.9375        0.537037        0.654279        0        
C4        C        0.9687500000000001        0.481481        0.654279        0        
C1        C        0.9375        0.574075        0.654279        0        
C2        C        0.9687500000000001        0.62963        0.654279        0        
C3        C        0.9375        0.648148        0.654279        0        
C4        C        0.9687500000000001        0.592592        0.654279        0        
C1        C        0.0        0.685186        0.654279        0        
C1        C        0.0625        0.685186        0.654279        0        
C1        C        0.125        0.685186        0.654279        0        
C1        C        0.1875        0.685186        0.654279        0        
C1        C        0.25        0.685186        0.654279        0        
C1        C        0.3125        0.685186        0.654279        0        
C1        C        0.375        0.685186        0.654279        0        
C1        C        0.4375        0.685186        0.654279        0        
C1        C        0.5        0.685186        0.654279        0        
C1        C        0.5625        0.685186        0.654279        0        
C1        C        0.625        0.685186        0.654279        0        
C1        C        0.6875        0.685186        0.654279        0        
C1        C        0.75        0.685186        0.654279        0        
C1        C        0.8125        0.685186        0.654279        0        
C1        C        0.875        0.685186        0.654279        0        
C1        C        0.9375        0.685186        0.654279        0        
C2        C        0.03125        0.740741        0.654279        0        
C2        C        0.09375        0.740741        0.654279        0        
C2        C        0.15625        0.740741        0.654279        0        
C2        C        0.21875        0.740741        0.654279        0        
C2        C        0.28125        0.740741        0.654279        0        
C2        C        0.34375        0.740741        0.654279        0        
C2        C        0.40625        0.740741        0.654279        0        
C2        C        0.46875        0.740741        0.654279        0        
C2        C        0.53125        0.740741        0.654279        0        
C2        C        0.59375        0.740741        0.654279        0        
C2        C        0.65625        0.740741        0.654279        0        
C2        C        0.71875        0.740741        0.654279        0        
C2        C        0.78125        0.740741        0.654279        0        
C2        C        0.84375        0.740741        0.654279        0        
C2        C        0.9062500000000001        0.740741        0.654279        0        
C2        C        0.9687500000000001        0.740741        0.654279        0        
C3        C        0.0        0.759259        0.654279        0        
C3        C        0.0625        0.759259        0.654279        0        
C3        C        0.125        0.759259        0.654279        0        
C3        C        0.1875        0.759259        0.654279        0        
C3        C        0.25        0.759259        0.654279        0        
C3        C        0.3125        0.759259        0.654279        0        
C3        C        0.375        0.759259        0.654279        0        
C3        C        0.4375        0.759259        0.654279        0        
C3        C        0.5        0.759259        0.654279        0        
C3        C        0.5625        0.759259        0.654279        0        
C3        C        0.625        0.759259        0.654279        0        
C3        C        0.6875        0.759259        0.654279        0        
C3        C        0.75        0.759259        0.654279        0        
C3        C        0.8125        0.759259        0.654279        0        
C3        C        0.875        0.759259        0.654279        0        
C3        C        0.9375        0.759259        0.654279        0        
C4        C        0.03125        0.703703        0.654279        0        
C4        C        0.09375        0.703703        0.654279        0        
C4        C        0.15625        0.703703        0.654279        0        
C4        C        0.21875        0.703703        0.654279        0        
C4        C        0.28125        0.703703        0.654279        0        
C4        C        0.34375        0.703703        0.654279        0        
C4        C        0.40625        0.703703        0.654279        0        
C4        C        0.46875        0.703703        0.654279        0        
C4        C        0.53125        0.703703        0.654279        0        
C4        C        0.59375        0.703703        0.654279        0        
C4        C        0.65625        0.703703        0.654279        0        
C4        C        0.71875        0.703703        0.654279        0        
C4        C        0.78125        0.703703        0.654279        0        
C4        C        0.84375        0.703703        0.654279        0        
C4        C        0.9062500000000001        0.703703        0.654279        0        
C4        C        0.9687500000000001        0.703703        0.654279        0        
C1        C        0.0        0.796297        0.654279        0        
C1        C        0.0625        0.796297        0.654279        0        
C1        C        0.125        0.796297        0.654279        0        
C1        C        0.1875        0.796297        0.654279        0        
C1        C        0.25        0.796297        0.654279        0        
C1        C        0.3125        0.796297        0.654279        0        
C1        C        0.375        0.796297        0.654279        0        
C1        C        0.4375        0.796297        0.654279        0        
C1        C        0.5        0.796297        0.654279        0        
C1        C        0.5625        0.796297        0.654279        0        
C1        C        0.625        0.796297        0.654279        0        
C1        C        0.6875        0.796297        0.654279        0        
C1        C        0.75        0.796297        0.654279        0        
C1        C        0.8125        0.796297        0.654279        0        
C1        C        0.875        0.796297        0.654279        0        
C1        C        0.9375        0.796297        0.654279        0        
C2        C        0.03125        0.851852        0.654279        0        
C2        C        0.09375        0.851852        0.654279        0        
C2        C        0.15625        0.851852        0.654279        0        
C2        C        0.21875        0.851852        0.654279        0        
C2        C        0.28125        0.851852        0.654279        0        
C2        C        0.34375        0.851852        0.654279        0        
C2        C        0.40625        0.851852        0.654279        0        
C2        C        0.46875        0.851852        0.654279        0        
C2        C        0.53125        0.851852        0.654279        0        
C2        C        0.59375        0.851852        0.654279        0        
C2        C        0.65625        0.851852        0.654279        0        
C2        C        0.71875        0.851852        0.654279        0        
C2        C        0.78125        0.851852        0.654279        0        
C2        C        0.84375        0.851852        0.654279        0        
C2        C        0.9062500000000001        0.851852        0.654279        0        
C2        C        0.9687500000000001        0.851852        0.654279        0        
C3        C        0.0        0.87037        0.654279        0        
C3        C        0.0625        0.87037        0.654279        0        
C3        C        0.125        0.87037        0.654279        0        
C3        C        0.1875        0.87037        0.654279        0        
C3        C        0.25        0.87037        0.654279        0        
C3        C        0.3125        0.87037        0.654279        0        
C3        C        0.375        0.87037        0.654279        0        
C3        C        0.4375        0.87037        0.654279        0        
C3        C        0.5        0.87037        0.654279        0        
C3        C        0.5625        0.87037        0.654279        0        
C3        C        0.625        0.87037        0.654279        0        
C3        C        0.6875        0.87037        0.654279        0        
C3        C        0.75        0.87037        0.654279        0        
C3        C        0.8125        0.87037        0.654279        0        
C3        C        0.875        0.87037        0.654279        0        
C3        C        0.9375        0.87037        0.654279        0        
C4        C        0.03125        0.814814        0.654279        0        
C4        C        0.09375        0.814814        0.654279        0        
C4        C        0.15625        0.814814        0.654279        0        
C4        C        0.21875        0.814814        0.654279        0        
C4        C        0.28125        0.814814        0.654279        0        
C4        C        0.34375        0.814814        0.654279        0        
C4        C        0.40625        0.814814        0.654279        0        
C4        C        0.46875        0.814814        0.654279        0        
C4        C        0.53125        0.814814        0.654279        0        
C4        C        0.59375        0.814814        0.654279        0        
C4        C        0.65625        0.814814        0.654279        0        
C4        C        0.71875        0.814814        0.654279        0        
C4        C        0.78125        0.814814        0.654279        0        
C4        C        0.84375        0.814814        0.654279        0        
C4        C        0.9062500000000001        0.814814        0.654279        0        
C4        C        0.9687500000000001        0.814814        0.654279        0        
C1        C        0.0        0.907408        0.654279        0        
C1        C        0.0625        0.907408        0.654279        0        
C1        C        0.125        0.907408        0.654279        0        
C1        C        0.1875        0.907408        0.654279        0        
C1        C        0.25        0.907408        0.654279        0        
C1        C        0.3125        0.907408        0.654279        0        
C1        C        0.375        0.907408        0.654279        0        
C1        C        0.4375        0.907408        0.654279        0        
C1        C        0.5        0.907408        0.654279        0        
C1        C        0.5625        0.907408        0.654279        0        
C1        C        0.625        0.907408        0.654279        0        
C1        C        0.6875        0.907408        0.654279        0        
C1        C        0.75        0.907408        0.654279        0        
C1        C        0.8125        0.907408        0.654279        0        
C1        C        0.875        0.907408        0.654279        0        
C1        C        0.9375        0.907408        0.654279        0        
C2        C        0.03125        0.962963        0.654279        0        
C2        C        0.09375        0.962963        0.654279        0        
C2        C        0.15625        0.962963        0.654279        0        
C2        C        0.21875        0.962963        0.654279        0        
C2        C        0.28125        0.962963        0.654279        0        
C2        C        0.34375        0.962963        0.654279        0        
C2        C        0.40625        0.962963        0.654279        0        
C2        C        0.46875        0.962963        0.654279        0        
C2        C        0.53125        0.962963        0.654279        0        
C2        C        0.59375        0.962963        0.654279        0        
C2        C        0.65625        0.962963        0.654279        0        
C2        C        0.71875        0.962963        0.654279        0        
C2        C        0.78125        0.962963        0.654279        0        
C2        C        0.84375        0.962963        0.654279        0        
C2        C        0.9062500000000001        0.962963        0.654279        0        
C2        C        0.9687500000000001        0.962963        0.654279        0        
C3        C        0.0        0.9814809999999999        0.654279        0        
C3        C        0.0625        0.9814809999999999        0.654279        0        
C3        C        0.125        0.9814809999999999        0.654279        0        
C3        C        0.1875        0.9814809999999999        0.654279        0        
C3        C        0.25        0.9814809999999999        0.654279        0        
C3        C        0.3125        0.9814809999999999        0.654279        0        
C3        C        0.375        0.9814809999999999        0.654279        0        
C3        C        0.4375        0.9814809999999999        0.654279        0        
C3        C        0.5        0.9814809999999999        0.654279        0        
C3        C        0.5625        0.9814809999999999        0.654279        0        
C3        C        0.625        0.9814809999999999        0.654279        0        
C3        C        0.6875        0.9814809999999999        0.654279        0        
C3        C        0.75        0.9814809999999999        0.654279        0        
C3        C        0.8125        0.9814809999999999        0.654279        0        
C3        C        0.875        0.9814809999999999        0.654279        0        
C3        C        0.9375        0.9814809999999999        0.654279        0        
C4        C        0.03125        0.925925        0.654279        0        
C4        C        0.09375        0.925925        0.654279        0        
C4        C        0.15625        0.925925        0.654279        0        
C4        C        0.21875        0.925925        0.654279        0        
C4        C        0.28125        0.925925        0.654279        0        
C4        C        0.34375        0.925925        0.654279        0        
C4        C        0.40625        0.925925        0.654279        0        
C4        C        0.46875        0.925925        0.654279        0        
C4        C        0.53125        0.925925        0.654279        0        
C4        C        0.59375        0.925925        0.654279        0        
C4        C        0.65625        0.925925        0.654279        0        
C4        C        0.71875        0.925925        0.654279        0        
C4        C        0.78125        0.925925        0.654279        0        
C4        C        0.84375        0.925925        0.654279        0        
C4        C        0.9062500000000001        0.925925        0.654279        0        
C4        C        0.9687500000000001        0.925925        0.654279        0        
C1        C        0.0        0.018519        0.72973        0        
C2        C        0.03125        0.074075        0.72973        0        
C3        C        0.0        0.092592        0.72973        0        
C4        C        0.03125        0.037037        0.72973        0        
C1        C        0.0        0.12963        0.72973        0        
C2        C        0.03125        0.185185        0.72973        0        
C3        C        0.0        0.203703        0.72973        0        
C4        C        0.03125        0.148148        0.72973        0        
C1        C        0.0        0.24074099999999998        0.72973        0        
C2        C        0.03125        0.296297        0.72973        0        
C3        C        0.0        0.314815        0.72973        0        
C4        C        0.03125        0.259259        0.72973        0        
C1        C        0.0        0.351852        0.72973        0        
C2        C        0.03125        0.407408        0.72973        0        
C3        C        0.0        0.425925        0.72973        0        
C4        C        0.03125        0.37037        0.72973        0        
C1        C        0.0        0.46296300000000007        0.72973        0        
C2        C        0.03125        0.518519        0.72973        0        
C3        C        0.0        0.537037        0.72973        0        
C4        C        0.03125        0.481481        0.72973        0        
C1        C        0.0        0.574075        0.72973        0        
C2        C        0.03125        0.62963        0.72973        0        
C3        C        0.0        0.648148        0.72973        0        
C4        C        0.03125        0.592592        0.72973        0        
C1        C        0.0625        0.018519        0.72973        0        
C2        C        0.09375        0.074075        0.72973        0        
C3        C        0.0625        0.092592        0.72973        0        
C4        C        0.09375        0.037037        0.72973        0        
C1        C        0.0625        0.12963        0.72973        0        
C2        C        0.09375        0.185185        0.72973        0        
C3        C        0.0625        0.203703        0.72973        0        
C4        C        0.09375        0.148148        0.72973        0        
C1        C        0.0625        0.24074099999999998        0.72973        0        
C2        C        0.09375        0.296297        0.72973        0        
C3        C        0.0625        0.314815        0.72973        0        
C4        C        0.09375        0.259259        0.72973        0        
C1        C        0.0625        0.351852        0.72973        0        
C2        C        0.09375        0.407408        0.72973        0        
C3        C        0.0625        0.425925        0.72973        0        
C4        C        0.09375        0.37037        0.72973        0        
C1        C        0.0625        0.46296300000000007        0.72973        0        
C2        C        0.09375        0.518519        0.72973        0        
C3        C        0.0625        0.537037        0.72973        0        
C4        C        0.09375        0.481481        0.72973        0        
C1        C        0.0625        0.574075        0.72973        0        
C2        C        0.09375        0.62963        0.72973        0        
C3        C        0.0625        0.648148        0.72973        0        
C4        C        0.09375        0.592592        0.72973        0        
C1        C        0.125        0.018519        0.72973        0        
C2        C        0.15625        0.074075        0.72973        0        
C3        C        0.125        0.092592        0.72973        0        
C4        C        0.15625        0.037037        0.72973        0        
C1        C        0.125        0.12963        0.72973        0        
C2        C        0.15625        0.185185        0.72973        0        
C3        C        0.125        0.203703        0.72973        0        
C4        C        0.15625        0.148148        0.72973        0        
C1        C        0.125        0.24074099999999998        0.72973        0        
C2        C        0.15625        0.296297        0.72973        0        
C3        C        0.125        0.314815        0.72973        0        
C4        C        0.15625        0.259259        0.72973        0        
C1        C        0.125        0.351852        0.72973        0        
C2        C        0.15625        0.407408        0.72973        0        
C3        C        0.125        0.425925        0.72973        0        
C4        C        0.15625        0.37037        0.72973        0        
C1        C        0.125        0.46296300000000007        0.72973        0        
C2        C        0.15625        0.518519        0.72973        0        
C3        C        0.125        0.537037        0.72973        0        
C4        C        0.15625        0.481481        0.72973        0        
C1        C        0.125        0.574075        0.72973        0        
C2        C        0.15625        0.62963        0.72973        0        
C3        C        0.125        0.648148        0.72973        0        
C4        C        0.15625        0.592592        0.72973        0        
C1        C        0.1875        0.018519        0.72973        0        
C2        C        0.21875        0.074075        0.72973        0        
C3        C        0.1875        0.092592        0.72973        0        
C4        C        0.21875        0.037037        0.72973        0        
C1        C        0.1875        0.12963        0.72973        0        
C2        C        0.21875        0.185185        0.72973        0        
C3        C        0.1875        0.203703        0.72973        0        
C4        C        0.21875        0.148148        0.72973        0        
C1        C        0.1875        0.24074099999999998        0.72973        0        
C2        C        0.21875        0.296297        0.72973        0        
C3        C        0.1875        0.314815        0.72973        0        
C4        C        0.21875        0.259259        0.72973        0        
C1        C        0.1875        0.351852        0.72973        0        
C2        C        0.21875        0.407408        0.72973        0        
C3        C        0.1875        0.425925        0.72973        0        
C4        C        0.21875        0.37037        0.72973        0        
C1        C        0.1875        0.46296300000000007        0.72973        0        
C2        C        0.21875        0.518519        0.72973        0        
C3        C        0.1875        0.537037        0.72973        0        
C4        C        0.21875        0.481481        0.72973        0        
C1        C        0.1875        0.574075        0.72973        0        
C2        C        0.21875        0.62963        0.72973        0        
C3        C        0.1875        0.648148        0.72973        0        
C4        C        0.21875        0.592592        0.72973        0        
C1        C        0.25        0.018519        0.72973        0        
C2        C        0.28125        0.074075        0.72973        0        
C3        C        0.25        0.092592        0.72973        0        
C4        C        0.28125        0.037037        0.72973        0        
C1        C        0.25        0.12963        0.72973        0        
C2        C        0.28125        0.185185        0.72973        0        
C3        C        0.25        0.203703        0.72973        0        
C4        C        0.28125        0.148148        0.72973        0        
C1        C        0.25        0.24074099999999998        0.72973        0        
C2        C        0.28125        0.296297        0.72973        0        
C3        C        0.25        0.314815        0.72973        0        
C4        C        0.28125        0.259259        0.72973        0        
C1        C        0.25        0.351852        0.72973        0        
C2        C        0.28125        0.407408        0.72973        0        
C3        C        0.25        0.425925        0.72973        0        
C4        C        0.28125        0.37037        0.72973        0        
C1        C        0.25        0.46296300000000007        0.72973        0        
C2        C        0.28125        0.518519        0.72973        0        
C3        C        0.25        0.537037        0.72973        0        
C4        C        0.28125        0.481481        0.72973        0        
C1        C        0.25        0.574075        0.72973        0        
C2        C        0.28125        0.62963        0.72973        0        
C3        C        0.25        0.648148        0.72973        0        
C4        C        0.28125        0.592592        0.72973        0        
C1        C        0.3125        0.018519        0.72973        0        
C2        C        0.34375        0.074075        0.72973        0        
C3        C        0.3125        0.092592        0.72973        0        
C4        C        0.34375        0.037037        0.72973        0        
C1        C        0.3125        0.12963        0.72973        0        
C2        C        0.34375        0.185185        0.72973        0        
C3        C        0.3125        0.203703        0.72973        0        
C4        C        0.34375        0.148148        0.72973        0        
C1        C        0.3125        0.24074099999999998        0.72973        0        
C2        C        0.34375        0.296297        0.72973        0        
C3        C        0.3125        0.314815        0.72973        0        
C4        C        0.34375        0.259259        0.72973        0        
C1        C        0.3125        0.351852        0.72973        0        
C2        C        0.34375        0.407408        0.72973        0        
C3        C        0.3125        0.425925        0.72973        0        
C4        C        0.34375        0.37037        0.72973        0        
C1        C        0.3125        0.46296300000000007        0.72973        0        
C2        C        0.34375        0.518519        0.72973        0        
C3        C        0.3125        0.537037        0.72973        0        
C4        C        0.34375        0.481481        0.72973        0        
C1        C        0.3125        0.574075        0.72973        0        
C2        C        0.34375        0.62963        0.72973        0        
C3        C        0.3125        0.648148        0.72973        0        
C4        C        0.34375        0.592592        0.72973        0        
C1        C        0.375        0.018519        0.72973        0        
C2        C        0.40625        0.074075        0.72973        0        
C3        C        0.375        0.092592        0.72973        0        
C4        C        0.40625        0.037037        0.72973        0        
C1        C        0.375        0.12963        0.72973        0        
C2        C        0.40625        0.185185        0.72973        0        
C3        C        0.375        0.203703        0.72973        0        
C4        C        0.40625        0.148148        0.72973        0        
C1        C        0.375        0.24074099999999998        0.72973        0        
C2        C        0.40625        0.296297        0.72973        0        
C3        C        0.375        0.314815        0.72973        0        
C4        C        0.40625        0.259259        0.72973        0        
C1        C        0.375        0.351852        0.72973        0        
C2        C        0.40625        0.407408        0.72973        0        
C3        C        0.375        0.425925        0.72973        0        
C4        C        0.40625        0.37037        0.72973        0        
C1        C        0.375        0.46296300000000007        0.72973        0        
C2        C        0.40625        0.518519        0.72973        0        
C3        C        0.375        0.537037        0.72973        0        
C4        C        0.40625        0.481481        0.72973        0        
C1        C        0.375        0.574075        0.72973        0        
C2        C        0.40625        0.62963        0.72973        0        
C3        C        0.375        0.648148        0.72973        0        
C4        C        0.40625        0.592592        0.72973        0        
C1        C        0.4375        0.018519        0.72973        0        
C2        C        0.46875        0.074075        0.72973        0        
C3        C        0.4375        0.092592        0.72973        0        
C4        C        0.46875        0.037037        0.72973        0        
C1        C        0.4375        0.12963        0.72973        0        
C2        C        0.46875        0.185185        0.72973        0        
C3        C        0.4375        0.203703        0.72973        0        
C4        C        0.46875        0.148148        0.72973        0        
C1        C        0.4375        0.24074099999999998        0.72973        0        
C2        C        0.46875        0.296297        0.72973        0        
C3        C        0.4375        0.314815        0.72973        0        
C4        C        0.46875        0.259259        0.72973        0        
C1        C        0.4375        0.351852        0.72973        0        
C2        C        0.46875        0.407408        0.72973        0        
C3        C        0.4375        0.425925        0.72973        0        
C4        C        0.46875        0.37037        0.72973        0        
C1        C        0.4375        0.46296300000000007        0.72973        0        
C2        C        0.46875        0.518519        0.72973        0        
C3        C        0.4375        0.537037        0.72973        0        
C4        C        0.46875        0.481481        0.72973        0        
C1        C        0.4375        0.574075        0.72973        0        
C2        C        0.46875        0.62963        0.72973        0        
C3        C        0.4375        0.648148        0.72973        0        
C4        C        0.46875        0.592592        0.72973        0        
C1        C        0.5        0.018519        0.72973        0        
C2        C        0.53125        0.074075        0.72973        0        
C3        C        0.5        0.092592        0.72973        0        
C4        C        0.53125        0.037037        0.72973        0        
C1        C        0.5        0.12963        0.72973        0        
C2        C        0.53125        0.185185        0.72973        0        
C3        C        0.5        0.203703        0.72973        0        
C4        C        0.53125        0.148148        0.72973        0        
C1        C        0.5        0.24074099999999998        0.72973        0        
C2        C        0.53125        0.296297        0.72973        0        
C3        C        0.5        0.314815        0.72973        0        
C4        C        0.53125        0.259259        0.72973        0        
C1        C        0.5        0.351852        0.72973        0        
C2        C        0.53125        0.407408        0.72973        0        
C3        C        0.5        0.425925        0.72973        0        
C4        C        0.53125        0.37037        0.72973        0        
C1        C        0.5        0.46296300000000007        0.72973        0        
C2        C        0.53125        0.518519        0.72973        0        
C3        C        0.5        0.537037        0.72973        0        
C4        C        0.53125        0.481481        0.72973        0        
C1        C        0.5        0.574075        0.72973        0        
C2        C        0.53125        0.62963        0.72973        0        
C3        C        0.5        0.648148        0.72973        0        
C4        C        0.53125        0.592592        0.72973        0        
C1        C        0.5625        0.018519        0.72973        0        
C2        C        0.59375        0.074075        0.72973        0        
C3        C        0.5625        0.092592        0.72973        0        
C4        C        0.59375        0.037037        0.72973        0        
C1        C        0.5625        0.12963        0.72973        0        
C2        C        0.59375        0.185185        0.72973        0        
C3        C        0.5625        0.203703        0.72973        0        
C4        C        0.59375        0.148148        0.72973        0        
C1        C        0.5625        0.24074099999999998        0.72973        0        
C2        C        0.59375        0.296297        0.72973        0        
C3        C        0.5625        0.314815        0.72973        0        
C4        C        0.59375        0.259259        0.72973        0        
C1        C        0.5625        0.351852        0.72973        0        
C2        C        0.59375        0.407408        0.72973        0        
C3        C        0.5625        0.425925        0.72973        0        
C4        C        0.59375        0.37037        0.72973        0        
C1        C        0.5625        0.46296300000000007        0.72973        0        
C2        C        0.59375        0.518519        0.72973        0        
C3        C        0.5625        0.537037        0.72973        0        
C4        C        0.59375        0.481481        0.72973        0        
C1        C        0.5625        0.574075        0.72973        0        
C2        C        0.59375        0.62963        0.72973        0        
C3        C        0.5625        0.648148        0.72973        0        
C4        C        0.59375        0.592592        0.72973        0        
C1        C        0.625        0.018519        0.72973        0        
C2        C        0.65625        0.074075        0.72973        0        
C3        C        0.625        0.092592        0.72973        0        
C4        C        0.65625        0.037037        0.72973        0        
C1        C        0.625        0.12963        0.72973        0        
C2        C        0.65625        0.185185        0.72973        0        
C3        C        0.625        0.203703        0.72973        0        
C4        C        0.65625        0.148148        0.72973        0        
C1        C        0.625        0.24074099999999998        0.72973        0        
C2        C        0.65625        0.296297        0.72973        0        
C3        C        0.625        0.314815        0.72973        0        
C4        C        0.65625        0.259259        0.72973        0        
C1        C        0.625        0.351852        0.72973        0        
C2        C        0.65625        0.407408        0.72973        0        
C3        C        0.625        0.425925        0.72973        0        
C4        C        0.65625        0.37037        0.72973        0        
C1        C        0.625        0.46296300000000007        0.72973        0        
C2        C        0.65625        0.518519        0.72973        0        
C3        C        0.625        0.537037        0.72973        0        
C4        C        0.65625        0.481481        0.72973        0        
C1        C        0.625        0.574075        0.72973        0        
C2        C        0.65625        0.62963        0.72973        0        
C3        C        0.625        0.648148        0.72973        0        
C4        C        0.65625        0.592592        0.72973        0        
C1        C        0.6875        0.018519        0.72973        0        
C2        C        0.71875        0.074075        0.72973        0        
C3        C        0.6875        0.092592        0.72973        0        
C4        C        0.71875        0.037037        0.72973        0        
C1        C        0.6875        0.12963        0.72973        0        
C2        C        0.71875        0.185185        0.72973        0        
C3        C        0.6875        0.203703        0.72973        0        
C4        C        0.71875        0.148148        0.72973        0        
C1        C        0.6875        0.24074099999999998        0.72973        0        
C2        C        0.71875        0.296297        0.72973        0        
C3        C        0.6875        0.314815        0.72973        0        
C4        C        0.71875        0.259259        0.72973        0        
C1        C        0.6875        0.351852        0.72973        0        
C2        C        0.71875        0.407408        0.72973        0        
C3        C        0.6875        0.425925        0.72973        0        
C4        C        0.71875        0.37037        0.72973        0        
C1        C        0.6875        0.46296300000000007        0.72973        0        
C2        C        0.71875        0.518519        0.72973        0        
C3        C        0.6875        0.537037        0.72973        0        
C4        C        0.71875        0.481481        0.72973        0        
C1        C        0.6875        0.574075        0.72973        0        
C2        C        0.71875        0.62963        0.72973        0        
C3        C        0.6875        0.648148        0.72973        0        
C4        C        0.71875        0.592592        0.72973        0        
C1        C        0.75        0.018519        0.72973        0        
C2        C        0.78125        0.074075        0.72973        0        
C3        C        0.75        0.092592        0.72973        0        
C4        C        0.78125        0.037037        0.72973        0        
C1        C        0.75        0.12963        0.72973        0        
C2        C        0.78125        0.185185        0.72973        0        
C3        C        0.75        0.203703        0.72973        0        
C4        C        0.78125        0.148148        0.72973        0        
C1        C        0.75        0.24074099999999998        0.72973        0        
C2        C        0.78125        0.296297        0.72973        0        
C3        C        0.75        0.314815        0.72973        0        
C4        C        0.78125        0.259259        0.72973        0        
C1        C        0.75        0.351852        0.72973        0        
C2        C        0.78125        0.407408        0.72973        0        
C3        C        0.75        0.425925        0.72973        0        
C4        C        0.78125        0.37037        0.72973        0        
C1        C        0.75        0.46296300000000007        0.72973        0        
C2        C        0.78125        0.518519        0.72973        0        
C3        C        0.75        0.537037        0.72973        0        
C4        C        0.78125        0.481481        0.72973        0        
C1        C        0.75        0.574075        0.72973        0        
C2        C        0.78125        0.62963        0.72973        0        
C3        C        0.75        0.648148        0.72973        0        
C4        C        0.78125        0.592592        0.72973        0        
C1        C        0.8125        0.018519        0.72973        0        
C2        C        0.84375        0.074075        0.72973        0        
C3        C        0.8125        0.092592        0.72973        0        
C4        C        0.84375        0.037037        0.72973        0        
C1        C        0.8125        0.12963        0.72973        0        
C2        C        0.84375        0.185185        0.72973        0        
C3        C        0.8125        0.203703        0.72973        0        
C4        C        0.84375        0.148148        0.72973        0        
C1        C        0.8125        0.24074099999999998        0.72973        0        
C2        C        0.84375        0.296297        0.72973        0        
C3        C        0.8125        0.314815        0.72973        0        
C4        C        0.84375        0.259259        0.72973        0        
C1        C        0.8125        0.351852        0.72973        0        
C2        C        0.84375        0.407408        0.72973        0        
C3        C        0.8125        0.425925        0.72973        0        
C4        C        0.84375        0.37037        0.72973        0        
C1        C        0.8125        0.46296300000000007        0.72973        0        
C2        C        0.84375        0.518519        0.72973        0        
C3        C        0.8125        0.537037        0.72973        0        
C4        C        0.84375        0.481481        0.72973        0        
C1        C        0.8125        0.574075        0.72973        0        
C2        C        0.84375        0.62963        0.72973        0        
C3        C        0.8125        0.648148        0.72973        0        
C4        C        0.84375        0.592592        0.72973        0        
C1        C        0.875        0.018519        0.72973        0        
C2        C        0.9062500000000001        0.074075        0.72973        0        
C3        C        0.875        0.092592        0.72973        0        
C4        C        0.9062500000000001        0.037037        0.72973        0        
C1        C        0.875        0.12963        0.72973        0        
C2        C        0.9062500000000001        0.185185        0.72973        0        
C3        C        0.875        0.203703        0.72973        0        
C4        C        0.9062500000000001        0.148148        0.72973        0        
C1        C        0.875        0.24074099999999998        0.72973        0        
C2        C        0.9062500000000001        0.296297        0.72973        0        
C3        C        0.875        0.314815        0.72973        0        
C4        C        0.9062500000000001        0.259259        0.72973        0        
C1        C        0.875        0.351852        0.72973        0        
C2        C        0.9062500000000001        0.407408        0.72973        0        
C3        C        0.875        0.425925        0.72973        0        
C4        C        0.9062500000000001        0.37037        0.72973        0        
C1        C        0.875        0.46296300000000007        0.72973        0        
C2        C        0.9062500000000001        0.518519        0.72973        0        
C3        C        0.875        0.537037        0.72973        0        
C4        C        0.9062500000000001        0.481481        0.72973        0        
C1        C        0.875        0.574075        0.72973        0        
C2        C        0.9062500000000001        0.62963        0.72973        0        
C3        C        0.875        0.648148        0.72973        0        
C4        C        0.9062500000000001        0.592592        0.72973        0        
C1        C        0.9375        0.018519        0.72973        0        
C2        C        0.9687500000000001        0.074075        0.72973        0        
C3        C        0.9375        0.092592        0.72973        0        
C4        C        0.9687500000000001        0.037037        0.72973        0        
C1        C        0.9375        0.12963        0.72973        0        
C2        C        0.9687500000000001        0.185185        0.72973        0        
C3        C        0.9375        0.203703        0.72973        0        
C4        C        0.9687500000000001        0.148148        0.72973        0        
C1        C        0.9375        0.24074099999999998        0.72973        0        
C2        C        0.9687500000000001        0.296297        0.72973        0        
C3        C        0.9375        0.314815        0.72973        0        
C4        C        0.9687500000000001        0.259259        0.72973        0        
C1        C        0.9375        0.351852        0.72973        0        
C2        C        0.9687500000000001        0.407408        0.72973        0        
C3        C        0.9375        0.425925        0.72973        0        
C4        C        0.9687500000000001        0.37037        0.72973        0        
C1        C        0.9375        0.46296300000000007        0.72973        0        
C2        C        0.9687500000000001        0.518519        0.72973        0        
C3        C        0.9375        0.537037        0.72973        0        
C4        C        0.9687500000000001        0.481481        0.72973        0        
C1        C        0.9375        0.574075        0.72973        0        
C2        C        0.9687500000000001        0.62963        0.72973        0        
C3        C        0.9375        0.648148        0.72973        0        
C4        C        0.9687500000000001        0.592592        0.72973        0        
C1        C        0.0        0.685186        0.72973        0        
C1        C        0.0625        0.685186        0.72973        0        
C1        C        0.125        0.685186        0.72973        0        
C1        C        0.1875        0.685186        0.72973        0        
C1        C        0.25        0.685186        0.72973        0        
C1        C        0.3125        0.685186        0.72973        0        
C1        C        0.375        0.685186        0.72973        0        
C1        C        0.4375        0.685186        0.72973        0        
C1        C        0.5        0.685186        0.72973        0        
C1        C        0.5625        0.685186        0.72973        0        
C1        C        0.625        0.685186        0.72973        0        
C1        C        0.6875        0.685186        0.72973        0        
C1        C        0.75        0.685186        0.72973        0        
C1        C        0.8125        0.685186        0.72973        0        
C1        C        0.875        0.685186        0.72973        0        
C1        C        0.9375        0.685186        0.72973        0        
C2        C        0.03125        0.740741        0.72973        0        
C2        C        0.09375        0.740741        0.72973        0        
C2        C        0.15625        0.740741        0.72973        0        
C2        C        0.21875        0.740741        0.72973        0        
C2        C        0.28125        0.740741        0.72973        0        
C2        C        0.34375        0.740741        0.72973        0        
C2        C        0.40625        0.740741        0.72973        0        
C2        C        0.46875        0.740741        0.72973        0        
C2        C        0.53125        0.740741        0.72973        0        
C2        C        0.59375        0.740741        0.72973        0        
C2        C        0.65625        0.740741        0.72973        0        
C2        C        0.71875        0.740741        0.72973        0        
C2        C        0.78125        0.740741        0.72973        0        
C2        C        0.84375        0.740741        0.72973        0        
C2        C        0.9062500000000001        0.740741        0.72973        0        
C2        C        0.9687500000000001        0.740741        0.72973        0        
C3        C        0.0        0.759259        0.72973        0        
C3        C        0.0625        0.759259        0.72973        0        
C3        C        0.125        0.759259        0.72973        0        
C3        C        0.1875        0.759259        0.72973        0        
C3        C        0.25        0.759259        0.72973        0        
C3        C        0.3125        0.759259        0.72973        0        
C3        C        0.375        0.759259        0.72973        0        
C3        C        0.4375        0.759259        0.72973        0        
C3        C        0.5        0.759259        0.72973        0        
C3        C        0.5625        0.759259        0.72973        0        
C3        C        0.625        0.759259        0.72973        0        
C3        C        0.6875        0.759259        0.72973        0        
C3        C        0.75        0.759259        0.72973        0        
C3        C        0.8125        0.759259        0.72973        0        
C3        C        0.875        0.759259        0.72973        0        
C3        C        0.9375        0.759259        0.72973        0        
C4        C        0.03125        0.703703        0.72973        0        
C4        C        0.09375        0.703703        0.72973        0        
C4        C        0.15625        0.703703        0.72973        0        
C4        C        0.21875        0.703703        0.72973        0        
C4        C        0.28125        0.703703        0.72973        0        
C4        C        0.34375        0.703703        0.72973        0        
C4        C        0.40625        0.703703        0.72973        0        
C4        C        0.46875        0.703703        0.72973        0        
C4        C        0.53125        0.703703        0.72973        0        
C4        C        0.59375        0.703703        0.72973        0        
C4        C        0.65625        0.703703        0.72973        0        
C4        C        0.71875        0.703703        0.72973        0        
C4        C        0.78125        0.703703        0.72973        0        
C4        C        0.84375        0.703703        0.72973        0        
C4        C        0.9062500000000001        0.703703        0.72973        0        
C4        C        0.9687500000000001        0.703703        0.72973        0        
C1        C        0.0        0.796297        0.72973        0        
C1        C        0.0625        0.796297        0.72973        0        
C1        C        0.125        0.796297        0.72973        0        
C1        C        0.1875        0.796297        0.72973        0        
C1        C        0.25        0.796297        0.72973        0        
C1        C        0.3125        0.796297        0.72973        0        
C1        C        0.375        0.796297        0.72973        0        
C1        C        0.4375        0.796297        0.72973        0        
C1        C        0.5        0.796297        0.72973        0        
C1        C        0.5625        0.796297        0.72973        0        
C1        C        0.625        0.796297        0.72973        0        
C1        C        0.6875        0.796297        0.72973        0        
C1        C        0.75        0.796297        0.72973        0        
C1        C        0.8125        0.796297        0.72973        0        
C1        C        0.875        0.796297        0.72973        0        
C1        C        0.9375        0.796297        0.72973        0        
C2        C        0.03125        0.851852        0.72973        0        
C2        C        0.09375        0.851852        0.72973        0        
C2        C        0.15625        0.851852        0.72973        0        
C2        C        0.21875        0.851852        0.72973        0        
C2        C        0.28125        0.851852        0.72973        0        
C2        C        0.34375        0.851852        0.72973        0        
C2        C        0.40625        0.851852        0.72973        0        
C2        C        0.46875        0.851852        0.72973        0        
C2        C        0.53125        0.851852        0.72973        0        
C2        C        0.59375        0.851852        0.72973        0        
C2        C        0.65625        0.851852        0.72973        0        
C2        C        0.71875        0.851852        0.72973        0        
C2        C        0.78125        0.851852        0.72973        0        
C2        C        0.84375        0.851852        0.72973        0        
C2        C        0.9062500000000001        0.851852        0.72973        0        
C2        C        0.9687500000000001        0.851852        0.72973        0        
C3        C        0.0        0.87037        0.72973        0        
C3        C        0.0625        0.87037        0.72973        0        
C3        C        0.125        0.87037        0.72973        0        
C3        C        0.1875        0.87037        0.72973        0        
C3        C        0.25        0.87037        0.72973        0        
C3        C        0.3125        0.87037        0.72973        0        
C3        C        0.375        0.87037        0.72973        0        
C3        C        0.4375        0.87037        0.72973        0        
C3        C        0.5        0.87037        0.72973        0        
C3        C        0.5625        0.87037        0.72973        0        
C3        C        0.625        0.87037        0.72973        0        
C3        C        0.6875        0.87037        0.72973        0        
C3        C        0.75        0.87037        0.72973        0        
C3        C        0.8125        0.87037        0.72973        0        
C3        C        0.875        0.87037        0.72973        0        
C3        C        0.9375        0.87037        0.72973        0        
C4        C        0.03125        0.814814        0.72973        0        
C4        C        0.09375        0.814814        0.72973        0        
C4        C        0.15625        0.814814        0.72973        0        
C4        C        0.21875        0.814814        0.72973        0        
C4        C        0.28125        0.814814        0.72973        0        
C4        C        0.34375        0.814814        0.72973        0        
C4        C        0.40625        0.814814        0.72973        0        
C4        C        0.46875        0.814814        0.72973        0        
C4        C        0.53125        0.814814        0.72973        0        
C4        C        0.59375        0.814814        0.72973        0        
C4        C        0.65625        0.814814        0.72973        0        
C4        C        0.71875        0.814814        0.72973        0        
C4        C        0.78125        0.814814        0.72973        0        
C4        C        0.84375        0.814814        0.72973        0        
C4        C        0.9062500000000001        0.814814        0.72973        0        
C4        C        0.9687500000000001        0.814814        0.72973        0        
C1        C        0.0        0.907408        0.72973        0        
C1        C        0.0625        0.907408        0.72973        0        
C1        C        0.125        0.907408        0.72973        0        
C1        C        0.1875        0.907408        0.72973        0        
C1        C        0.25        0.907408        0.72973        0        
C1        C        0.3125        0.907408        0.72973        0        
C1        C        0.375        0.907408        0.72973        0        
C1        C        0.4375        0.907408        0.72973        0        
C1        C        0.5        0.907408        0.72973        0        
C1        C        0.5625        0.907408        0.72973        0        
C1        C        0.625        0.907408        0.72973        0        
C1        C        0.6875        0.907408        0.72973        0        
C1        C        0.75        0.907408        0.72973        0        
C1        C        0.8125        0.907408        0.72973        0        
C1        C        0.875        0.907408        0.72973        0        
C1        C        0.9375        0.907408        0.72973        0        
C2        C        0.03125        0.962963        0.72973        0        
C2        C        0.09375        0.962963        0.72973        0        
C2        C        0.15625        0.962963        0.72973        0        
C2        C        0.21875        0.962963        0.72973        0        
C2        C        0.28125        0.962963        0.72973        0        
C2        C        0.34375        0.962963        0.72973        0        
C2        C        0.40625        0.962963        0.72973        0        
C2        C        0.46875        0.962963        0.72973        0        
C2        C        0.53125        0.962963        0.72973        0        
C2        C        0.59375        0.962963        0.72973        0        
C2        C        0.65625        0.962963        0.72973        0        
C2        C        0.71875        0.962963        0.72973        0        
C2        C        0.78125        0.962963        0.72973        0        
C2        C        0.84375        0.962963        0.72973        0        
C2        C        0.9062500000000001        0.962963        0.72973        0        
C2        C        0.9687500000000001        0.962963        0.72973        0        
C3        C        0.0        0.9814809999999999        0.72973        0        
C3        C        0.0625        0.9814809999999999        0.72973        0        
C3        C        0.125        0.9814809999999999        0.72973        0        
C3        C        0.1875        0.9814809999999999        0.72973        0        
C3        C        0.25        0.9814809999999999        0.72973        0        
C3        C        0.3125        0.9814809999999999        0.72973        0        
C3        C        0.375        0.9814809999999999        0.72973        0        
C3        C        0.4375        0.9814809999999999        0.72973        0        
C3        C        0.5        0.9814809999999999        0.72973        0        
C3        C        0.5625        0.9814809999999999        0.72973        0        
C3        C        0.625        0.9814809999999999        0.72973        0        
C3        C        0.6875        0.9814809999999999        0.72973        0        
C3        C        0.75        0.9814809999999999        0.72973        0        
C3        C        0.8125        0.9814809999999999        0.72973        0        
C3        C        0.875        0.9814809999999999        0.72973        0        
C3        C        0.9375        0.9814809999999999        0.72973        0        
C4        C        0.03125        0.925925        0.72973        0        
C4        C        0.09375        0.925925        0.72973        0        
C4        C        0.15625        0.925925        0.72973        0        
C4        C        0.21875        0.925925        0.72973        0        
C4        C        0.28125        0.925925        0.72973        0        
C4        C        0.34375        0.925925        0.72973        0        
C4        C        0.40625        0.925925        0.72973        0        
C4        C        0.46875        0.925925        0.72973        0        
C4        C        0.53125        0.925925        0.72973        0        
C4        C        0.59375        0.925925        0.72973        0        
C4        C        0.65625        0.925925        0.72973        0        
C4        C        0.71875        0.925925        0.72973        0        
C4        C        0.78125        0.925925        0.72973        0        
C4        C        0.84375        0.925925        0.72973        0        
C4        C        0.9062500000000001        0.925925        0.72973        0        
C4        C        0.9687500000000001        0.925925        0.72973        0        
C_COOH        C        0.0        0.018519        0.4554054054054054        0.55        
C_COOH        C        0.0        0.203703        0.4554054054054054        0.55        
C_COOH        C        0.0        0.351852        0.4554054054054054        0.55        
C_COOH        C        0.0        0.537037        0.4554054054054054        0.55        
C_COOH        C        0.25        0.018519        0.4554054054054054        0.55        
C_COOH        C        0.25        0.203703        0.4554054054054054        0.55        
C_COOH        C        0.25        0.351852        0.4554054054054054        0.55        
C_COOH        C        0.25        0.537037        0.4554054054054054        0.55        
C_COOH        C        0.5        0.018519        0.4554054054054054        0.55        
C_COOH        C        0.5        0.203703        0.4554054054054054        0.55        
C_COOH        C        0.5        0.351852        0.4554054054054054        0.55        
C_COOH        C        0.5        0.537037        0.4554054054054054        0.55        
C_COOH        C        0.75        0.018519        0.4554054054054054        0.55        
C_COOH        C        0.75        0.203703        0.4554054054054054        0.55        
C_COOH        C        0.75        0.351852        0.4554054054054054        0.55        
C_COOH        C        0.75        0.537037        0.4554054054054054        0.55        
C_COOH        C        0.0        0.685186        0.4554054054054054        0.55        
C_COOH        C        0.25        0.685186        0.4554054054054054        0.55        
C_COOH        C        0.5        0.685186        0.4554054054054054        0.55        
C_COOH        C        0.75        0.685186        0.4554054054054054        0.55        
C_COOH        C        0.0        0.87037        0.4554054054054054        0.55        
C_COOH        C        0.25        0.87037        0.4554054054054054        0.55        
C_COOH        C        0.5        0.87037        0.4554054054054054        0.55        
C_COOH        C        0.75        0.87037        0.4554054054054054        0.55        
C_COOH        C        0.0        0.018519        0.5445945945945946        0.55        
C_COOH        C        0.0        0.203703        0.5445945945945946        0.55        
C_COOH        C        0.0        0.351852        0.5445945945945946        0.55        
C_COOH        C        0.0        0.537037        0.5445945945945946        0.55        
C_COOH        C        0.25        0.018519        0.5445945945945946        0.55        
C_COOH        C        0.25        0.203703        0.5445945945945946        0.55        
C_COOH        C        0.25        0.351852        0.5445945945945946        0.55        
C_COOH        C        0.25        0.537037        0.5445945945945946        0.55        
C_COOH        C        0.5        0.018519        0.5445945945945946        0.55        
C_COOH        C        0.5        0.203703        0.5445945945945946        0.55        
C_COOH        C        0.5        0.351852        0.5445945945945946        0.55        
C_COOH        C        0.5        0.537037        0.5445945945945946        0.55        
C_COOH        C        0.75        0.018519        0.5445945945945946        0.55        
C_COOH        C        0.75        0.203703        0.5445945945945946        0.55        
C_COOH        C        0.75        0.351852        0.5445945945945946        0.55        
C_COOH        C        0.75        0.537037        0.5445945945945946        0.55        
C_COOH        C        0.0        0.685186        0.5445945945945946        0.55        
C_COOH        C        0.25        0.685186        0.5445945945945946        0.55        
C_COOH        C        0.5        0.685186        0.5445945945945946        0.55        
C_COOH        C        0.75        0.685186        0.5445945945945946        0.55        
C_COOH        C        0.0        0.87037        0.5445945945945946        0.55        
C_COOH        C        0.25        0.87037        0.5445945945945946        0.55        
C_COOH        C        0.5        0.87037        0.5445945945945946        0.55        
C_COOH        C        0.75        0.87037        0.5445945945945946        0.55        
O_COOH_d        O        0.0227140124725119        0.03668783252077519        0.46520403153153156        -0.5        
O_COOH_d        O        -0.008864426763593282        0.23182834105356015        0.46520403153153156        -0.5        
O_COOH_d        O        -0.015263832523236997        0.37691797931793414        0.46520403153153156        -0.5        
O_COOH_d        O        -0.012026619820834689        0.5638961049652502        0.46520403153153156        -0.5        
O_COOH_d        O        0.22699373009660015        0.03629606256616117        0.46520403153153156        -0.5        
O_COOH_d        O        0.24571628633677675        0.23293500144637733        0.46520403153153156        -0.5        
O_COOH_d        O        0.2657274110435354        0.3766141049416515        0.46520403153153156        -0.5        
O_COOH_d        O        0.22226277746715922        0.5449752345261663        0.46520403153153156        -0.5        
O_COOH_d        O        0.5064085666644431        0.04733853227783822        0.46520403153153156        -0.5        
O_COOH_d        O        0.5182808624830656        0.22654247001097902        0.46520403153153156        -0.5        
O_COOH_d        O        0.4955972520088585        0.38106535607346204        0.46520403153153156        -0.5        
O_COOH_d        O        0.4809266952253255        0.559182979371492        0.46520403153153156        -0.5        
O_COOH_d        O        0.7423404357555549        0.04701491841223758        0.46520403153153156        -0.5        
O_COOH_d        O        0.7724833956676547        0.22217166908553812        0.46520403153153156        -0.5        
O_COOH_d        O        0.7507045921933121        0.38140409404667114        0.46520403153153156        -0.5        
O_COOH_d        O        0.7488780433708687        0.5665754973205169        0.46520403153153156        -0.5        
O_COOH_d        O        0.028623298381432696        0.6884083169630566        0.46520403153153156        -0.5        
O_COOH_d        O        0.23024177295522724        0.7066898099513165        0.46520403153153156        -0.5        
O_COOH_d        O        0.5146511695705707        0.7106343652421839        0.46520403153153156        -0.5        
O_COOH_d        O        0.7531767449952553        0.7145664980692569        0.46520403153153156        -0.5        
O_COOH_d        O        0.014118593454365481        0.8961336854229518        0.46520403153153156        -0.5        
O_COOH_d        O        0.27279365072420136        0.8884334139916139        0.46520403153153156        -0.5        
O_COOH_d        O        0.5235464261980205        0.8873853597238116        0.46520403153153156        -0.5        
O_COOH_d        O        0.7257077486213958        0.8862419719830773        0.46520403153153156        -0.5        
O_COOH_d        O        0.02113554833528639        0.0385951854478309        0.5347959684684686        -0.5        
O_COOH_d        O        0.004741411248576365        0.2328604418633674        0.5347959684684686        -0.5        
O_COOH_d        O        0.026608427450923608        0.3631510330159854        0.5347959684684686        -0.5        
O_COOH_d        O        0.02876483505431727        0.5383871361985326        0.5347959684684686        -0.5        
O_COOH_d        O        0.2416195557801273        0.0468002839135317        0.5347959684684686        -0.5        
O_COOH_d        O        0.23414891688763506        0.22838185535087593        0.5347959684684686        -0.5        
O_COOH_d        O        0.251830164474487        0.38135317600706864        0.5347959684684686        -0.5        
O_COOH_d        O        0.2336348930744667        0.5613596884006302        0.5347959684684686        -0.5        
O_COOH_d        O        0.5088283282849158        0.046656304881937394        0.5347959684684686        -0.5        
O_COOH_d        O        0.4839800291044386        0.22826665323528292        0.5347959684684686        -0.5        
O_COOH_d        O        0.5271777578485187        0.361619037307461        0.5347959684684686        -0.5        
O_COOH_d        O        0.4922031754865021        0.5654936588494359        0.5347959684684686        -0.5        
O_COOH_d        O        0.723489992560229        0.030059274345638737        0.5347959684684686        -0.5        
O_COOH_d        O        0.7213092648418926        0.20621494425682044        0.5347959684684686        -0.5        
O_COOH_d        O        0.7784598982712164        0.3563479562460814        0.5347959684684686        -0.5        
O_COOH_d        O        0.7753817317370343        0.5509970429643042        0.5347959684684686        -0.5        
O_COOH_d        O        0.01517816685723183        0.7103067435614653        0.5347959684684686        -0.5        
O_COOH_d        O        0.23788470806526063        0.7120030726704855        0.5347959684684686        -0.5        
O_COOH_d        O        0.49242839179757647        0.7137066814352304        0.5347959684684686        -0.5        
O_COOH_d        O        0.7745149641584428        0.7006928835843975        0.5347959684684686        -0.5        
O_COOH_d        O        0.002272771161685071        0.899838720509458        0.5347959684684686        -0.5        
O_COOH_d        O        0.25377933535289576        0.899675221416968        0.5347959684684686        -0.5        
O_COOH_d        O        0.48689390011594863        0.8966914455601673        0.5347959684684686        -0.5        
O_COOH_d        O        0.72381510683355        0.8826677020787423        0.5347959684684686        -0.5        
O_COOH        O        -0.022115433179446947        0.0008289682608684082        0.4734625900900901        -0.58        
O_COOH        O        0.008630823726173143        0.17631884224839603        0.4734625900900901        -0.58        
O_COOH        O        0.01486158681291708        0.32744658103872976        0.4734625900900901        -0.58        
O_COOH        O        0.011709683938236749        0.5108857093886386        0.4734625900900901        -0.58        
O_COOH        O        0.27239998878985794        0.0012104139549511403        0.4734625900900901        -0.58        
O_COOH        O        0.25417082553747583        0.1752413455269644        0.4734625900900901        -0.58        
O_COOH        O        0.23468705128871759        0.32774244745474757        0.4734625900900901        -0.58        
O_COOH        O        0.2770062672656732        0.5293079606927148        0.4734625900900901        -0.58        
O_COOH        O        0.4937603174245396        -0.009541055048607697        0.4734625900900901        -0.58        
O_COOH        O        0.4822008906089948        0.18146541544759834        0.4734625900900901        -0.58        
O_COOH        O        0.504286722969879        0.3234084995408936        0.4734625900900901        -0.58        
O_COOH        O        0.5185706685582749        0.5154746306222272        0.4734625900900901        -0.58        
O_COOH        O        0.7574577127857399        -0.009225969335359335        0.4734625900900901        -0.58        
O_COOH        O        0.7281091062119991        0.18572103324847047        0.4734625900900901        -0.58        
O_COOH        O        0.7493139758292899        0.3230786882835954        0.4734625900900901        -0.58        
O_COOH        O        0.7510923898581027        0.5082769266970675        0.4734625900900901        -0.58        
O_COOH        O        -0.027868992477485536        0.6820486003192645        0.4734625900900901        -0.58        
O_COOH        O        0.2692375411645925        0.6642488770386831        0.4734625900900901        -0.58        
O_COOH        O        0.4857349307159701        0.6604082720789304        0.4734625900900901        -0.58        
O_COOH        O        0.7469069713351733        0.656579762215467        0.4734625900900901        -0.58        
O_COOH        O        -0.01374652807405397        0.8452852614881622        0.4734625900900901        -0.58        
O_COOH        O        0.22780702726491983        0.852782608709814        0.4734625900900901        -0.58        
O_COOH        O        0.4770740895811654        0.8538030437455028        0.4734625900900901        -0.58        
O_COOH        O        0.7736520809694896        0.8549162999440281        0.4734625900900901        -0.58        
O_COOH        O        -0.02057856609375658        -0.001028120452936386        0.5265374099099099        -0.58        
O_COOH        O        -0.004616461480377652        0.1753139402513857        0.5265374099099099        -0.58        
O_COOH        O        -0.02590721916760428        0.3408507288701284        0.5265374099099099        -0.58        
O_COOH        O        -0.02800679925360702        0.5357224437577712        0.5265374099099099        -0.58        
O_COOH        O        0.25815959550885026        -0.00901699107051607        0.5265374099099099        -0.58        
O_COOH        O        0.2654333616668389        0.1796745031803372        0.5265374099099099        -0.58        
O_COOH        O        0.248218065601932        0.3231282644869994        0.5265374099099099        -0.58        
O_COOH        O        0.26593383948010624        0.5133552841112016        0.5265374099099099        -0.58        
O_COOH        O        0.491404323454187        -0.008876806298833006        0.5265374099099099        -0.58        
O_COOH        O        0.5155977987731681        0.17978666939018723        0.5265374099099099        -0.58        
O_COOH        O        0.4735384539216273        0.34234235210332303        0.5265374099099099        -0.58        
O_COOH        O        0.5075913558535203        0.5093302556255032        0.5265374099099099        -0.58        
O_COOH        O        0.7758113928056701        0.007282844940548483        0.5265374099099099        -0.58        
O_COOH        O        0.7779346521019219        0.201257252669825        0.5265374099099099        -0.58        
O_COOH        O        0.7222901015717661        0.3474745250796944        0.5265374099099099        -0.58        
O_COOH        O        0.7252871496003473        0.5234448441564252        0.5265374099099099        -0.58        
O_COOH        O        -0.014778178682600925        0.6607272599898879        0.5265374099099099        -0.58        
O_COOH        O        0.2617960192879383        0.6590756340120346        0.5265374099099099        -0.58        
O_COOH        O        0.5073720746373761        0.6574169202182374        0.5265374099099099        -0.58        
O_COOH        O        0.7261310753703826        0.670087767217605        0.5265374099099099        -0.58        
O_COOH        O        -0.0022128771312091154        0.8416778646892791        0.5265374099099099        -0.58        
O_COOH        O        0.24632026095958007        0.8418370551123379        0.5265374099099099        -0.58        
O_COOH        O        0.5127607166096111        0.8447421999282693        0.5265374099099099        -0.58        
O_COOH        O        0.775494846224743        0.858396377597868        0.5265374099099099        -0.58        
H_COOH        H        -0.03764086849910476        -0.011589754960154634        0.4603148423423423        0.45        
H_COOH        H        0.014689818566057175        0.1570946666916202        0.4603148423423423        0.45        
H_COOH        H        0.025294690380875028        0.3103135341543265        0.4603148423423423        0.45        
H_COOH        H        0.01993009450499359        0.4925270289315183        0.4603148423423423        0.45        
H_COOH        H        0.28812518731055436        -0.010940527468474232        0.4603148423423423        0.45        
H_COOH        H        0.2570988207336919        0.1552607477233353        0.4603148423423423        0.45        
H_COOH        H        0.2239370834793058        0.3108171041621243        0.4603148423423423        0.45        
H_COOH        H        0.29596515684547414        0.5238820348754503        0.4603148423423423        0.45        
H_COOH        H        0.48937994705356547        -0.02923972277029917        0.4603148423423423        0.45        
H_COOH        H        0.4697055928974228        0.16585422764800367        0.4603148423423423        0.45        
H_COOH        H        0.507296080266303        0.30344064618440075        0.4603148423423423        0.45        
H_COOH        H        0.5316076148032279        0.5003374561252655        0.4603148423423423        0.45        
H_COOH        H        0.7626931624623572        -0.028703441169930143        0.4603148423423423        0.45        
H_COOH        H        0.7127413016188265        0.17309736635233372        0.4603148423423423        0.45        
H_COOH        H        0.7488323744153065        0.3028793014409017        0.4603148423423423        0.45        
H_COOH        H        0.7518592673570968        0.4880868334608081        0.4603148423423423        0.45        
H_COOH        H        -0.04743353080791004        0.679846088823336        0.4603148423423423        0.45        
H_COOH        H        0.28274264407786953        0.6495506368695626        0.4603148423423423        0.45        
H_COOH        H        0.47572059327556815        0.643013857550159        0.4603148423423423        0.45        
H_COOH        H        0.7447356090974105        0.6364976643040742        0.4603148423423423        0.45        
H_COOH        H        -0.02339684017745552        0.8276753199547534        0.4603148423423423        0.45        
H_COOH        H        0.2122271577704516        0.8404359409460983        0.4603148423423423        0.45        
H_COOH        H        0.46097968453543126        0.8421727398900108        0.4603148423423423        0.45        
H_COOH        H        0.7902562709162815        0.8440675221370728        0.4603148423423423        0.45        
H_COOH        H        -0.03502509283675708        -0.014750553643151351        0.5396851576576577        0.45        
H_COOH        H        -0.007857301193429447        0.15538430526134503        0.5396851576576577        0.45        
H_COOH        H        -0.04409455704315828        0.3331276369471733        0.5396851576576577        0.45        
H_COOH        H        -0.047668080441018515        0.5347996014264828        0.5396851576576577        0.45        
H_COOH        H        0.26388777959094895        -0.028347756371793476        0.5396851576576577        0.45        
H_COOH        H        0.27626786155563493        0.16280606247762575        0.5396851576576577        0.45        
H_COOH        H        0.24696711532586915        0.3029636810385281        0.5396851576576577        0.45        
H_COOH        H        0.2771196838736994        0.4967302899134055        0.5396851576576577        0.45        
H_COOH        H        0.485370002572571        -0.028109159347096572        0.5396851576576577        0.45        
H_COOH        H        0.526547736493896        0.1629969714017581        0.5396851576576577        0.45        
H_COOH        H        0.454961968497877        0.3356664067517398        0.5396851576576577        0.45        
H_COOH        H        0.5129206253883296        0.4898796184069515        0.5396851576576577        0.45        
H_COOH        H        0.7939314588366235        -0.0006051397623368524        0.5396851576576577        0.45        
H_COOH        H        0.7975452846799258        0.19954029367224374        0.5396851576576577        0.45        
H_COOH        H        0.7028372501502687        0.34440145826760993        0.5396851576576577        0.45        
H_COOH        H        0.7079382802686465        0.5139029041595075        0.5396851576576577        0.45        
H_COOH        H        -0.02515272822985081        0.6435567807618244        0.5396851576576577        0.45        
H_COOH        H        0.2700770388365186        0.6407456833830102        0.5396851576576577        0.45        
H_COOH        H        0.5125474047801581        0.6379225224128693        0.5396851576576577        0.45        
H_COOH        H        0.7093746572401102        0.6594885338857408        0.5396851576576577        0.45        
H_COOH        H        -0.0037663570242851326        0.8215354651561124        0.5396851576576577        0.45        
H_COOH        H        0.24373701739379933        0.8218064101442596        0.5396851576576577        0.45        
H_COOH        H        0.5217189711799589        0.8267510193273597        0.5396851576576577        0.45        
H_COOH        H        0.7933926908129613        0.8499906774409719        0.5396851576576577        0.45        
