data_graphite_ortho

_audit_creation_method RASPA-1.0
_audit_creation_date 2012-2-3
_audit_author_name 'David Dubbeldam'

_cell_length_a    39.36    
_cell_length_b    38.34    
_cell_length_c    46.3    
_cell_angle_alpha 90
_cell_angle_beta  90
_cell_angle_gamma 90
_cell_volume      69869.59      

_symmetry_cell_setting          triclinic
_symmetry_space_group_name_Hall 'P 1'
_symmetry_space_group_name_H-M  'P 1'
_symmetry_Int_Tables_number     1

_symmetry_equiv_pos_as_xyz 'x,y,z'

loop_
_atom_site_label
_atom_site_type_symbol
_atom_site_fract_x
_atom_site_fract_y
_atom_site_fract_z
_atom_site_charge
C1        C        0.0        0.018519        0.259179        0        
C2        C        0.03125        0.074075        0.259179        0        
C3        C        0.0        0.092592        0.259179        0        
C4        C        0.03125        0.037037        0.259179        0        
C1        C        0.0        0.12963        0.259179        0        
C2        C        0.03125        0.185185        0.259179        0        
C3        C        0.0        0.203703        0.259179        0        
C4        C        0.03125        0.148148        0.259179        0        
C1        C        0.0        0.24074099999999998        0.259179        0        
C2        C        0.03125        0.296297        0.259179        0        
C3        C        0.0        0.314815        0.259179        0        
C4        C        0.03125        0.259259        0.259179        0        
C1        C        0.0        0.351852        0.259179        0        
C2        C        0.03125        0.407408        0.259179        0        
C3        C        0.0        0.42592500000000005        0.259179        0        
C4        C        0.03125        0.37037        0.259179        0        
C1        C        0.0        0.46296300000000007        0.259179        0        
C2        C        0.03125        0.518519        0.259179        0        
C3        C        0.0        0.537037        0.259179        0        
C4        C        0.03125        0.481481        0.259179        0        
C1        C        0.0        0.574075        0.259179        0        
C2        C        0.03125        0.62963        0.259179        0        
C3        C        0.0        0.648148        0.259179        0        
C4        C        0.03125        0.592592        0.259179        0        
C1        C        0.0625        0.018519        0.259179        0        
C2        C        0.09375        0.074075        0.259179        0        
C3        C        0.0625        0.092592        0.259179        0        
C4        C        0.09375        0.037037        0.259179        0        
C1        C        0.0625        0.12963        0.259179        0        
C2        C        0.09375        0.185185        0.259179        0        
C3        C        0.0625        0.203703        0.259179        0        
C4        C        0.09375        0.148148        0.259179        0        
C1        C        0.0625        0.24074099999999998        0.259179        0        
C2        C        0.09375        0.296297        0.259179        0        
C3        C        0.0625        0.314815        0.259179        0        
C4        C        0.09375        0.259259        0.259179        0        
C1        C        0.0625        0.351852        0.259179        0        
C2        C        0.09375        0.407408        0.259179        0        
C3        C        0.0625        0.42592500000000005        0.259179        0        
C4        C        0.09375        0.37037        0.259179        0        
C1        C        0.0625        0.46296300000000007        0.259179        0        
C2        C        0.09375        0.518519        0.259179        0        
C3        C        0.0625        0.537037        0.259179        0        
C4        C        0.09375        0.481481        0.259179        0        
C1        C        0.0625        0.574075        0.259179        0        
C2        C        0.09375        0.62963        0.259179        0        
C3        C        0.0625        0.648148        0.259179        0        
C4        C        0.09375        0.592592        0.259179        0        
C1        C        0.125        0.018519        0.259179        0        
C2        C        0.15625        0.074075        0.259179        0        
C3        C        0.125        0.092592        0.259179        0        
C4        C        0.15625        0.037037        0.259179        0        
C1        C        0.125        0.12963        0.259179        0        
C2        C        0.15625        0.185185        0.259179        0        
C3        C        0.125        0.203703        0.259179        0        
C4        C        0.15625        0.148148        0.259179        0        
C1        C        0.125        0.24074099999999998        0.259179        0        
C2        C        0.15625        0.296297        0.259179        0        
C3        C        0.125        0.314815        0.259179        0        
C4        C        0.15625        0.259259        0.259179        0        
C1        C        0.125        0.351852        0.259179        0        
C2        C        0.15625        0.407408        0.259179        0        
C3        C        0.125        0.42592500000000005        0.259179        0        
C4        C        0.15625        0.37037        0.259179        0        
C1        C        0.125        0.46296300000000007        0.259179        0        
C2        C        0.15625        0.518519        0.259179        0        
C3        C        0.125        0.537037        0.259179        0        
C4        C        0.15625        0.481481        0.259179        0        
C1        C        0.125        0.574075        0.259179        0        
C2        C        0.15625        0.62963        0.259179        0        
C3        C        0.125        0.648148        0.259179        0        
C4        C        0.15625        0.592592        0.259179        0        
C1        C        0.1875        0.018519        0.259179        0        
C2        C        0.21875        0.074075        0.259179        0        
C3        C        0.1875        0.092592        0.259179        0        
C4        C        0.21875        0.037037        0.259179        0        
C1        C        0.1875        0.12963        0.259179        0        
C2        C        0.21875        0.185185        0.259179        0        
C3        C        0.1875        0.203703        0.259179        0        
C4        C        0.21875        0.148148        0.259179        0        
C1        C        0.1875        0.24074099999999998        0.259179        0        
C2        C        0.21875        0.296297        0.259179        0        
C3        C        0.1875        0.314815        0.259179        0        
C4        C        0.21875        0.259259        0.259179        0        
C1        C        0.1875        0.351852        0.259179        0        
C2        C        0.21875        0.407408        0.259179        0        
C3        C        0.1875        0.42592500000000005        0.259179        0        
C4        C        0.21875        0.37037        0.259179        0        
C1        C        0.1875        0.46296300000000007        0.259179        0        
C2        C        0.21875        0.518519        0.259179        0        
C3        C        0.1875        0.537037        0.259179        0        
C4        C        0.21875        0.481481        0.259179        0        
C1        C        0.1875        0.574075        0.259179        0        
C2        C        0.21875        0.62963        0.259179        0        
C3        C        0.1875        0.648148        0.259179        0        
C4        C        0.21875        0.592592        0.259179        0        
C1        C        0.25        0.018519        0.259179        0        
C2        C        0.28125        0.074075        0.259179        0        
C3        C        0.25        0.092592        0.259179        0        
C4        C        0.28125        0.037037        0.259179        0        
C1        C        0.25        0.12963        0.259179        0        
C2        C        0.28125        0.185185        0.259179        0        
C3        C        0.25        0.203703        0.259179        0        
C4        C        0.28125        0.148148        0.259179        0        
C1        C        0.25        0.24074099999999998        0.259179        0        
C2        C        0.28125        0.296297        0.259179        0        
C3        C        0.25        0.314815        0.259179        0        
C4        C        0.28125        0.259259        0.259179        0        
C1        C        0.25        0.351852        0.259179        0        
C2        C        0.28125        0.407408        0.259179        0        
C3        C        0.25        0.42592500000000005        0.259179        0        
C4        C        0.28125        0.37037        0.259179        0        
C1        C        0.25        0.46296300000000007        0.259179        0        
C2        C        0.28125        0.518519        0.259179        0        
C3        C        0.25        0.537037        0.259179        0        
C4        C        0.28125        0.481481        0.259179        0        
C1        C        0.25        0.574075        0.259179        0        
C2        C        0.28125        0.62963        0.259179        0        
C3        C        0.25        0.648148        0.259179        0        
C4        C        0.28125        0.592592        0.259179        0        
C1        C        0.3125        0.018519        0.259179        0        
C2        C        0.34375        0.074075        0.259179        0        
C3        C        0.3125        0.092592        0.259179        0        
C4        C        0.34375        0.037037        0.259179        0        
C1        C        0.3125        0.12963        0.259179        0        
C2        C        0.34375        0.185185        0.259179        0        
C3        C        0.3125        0.203703        0.259179        0        
C4        C        0.34375        0.148148        0.259179        0        
C1        C        0.3125        0.24074099999999998        0.259179        0        
C2        C        0.34375        0.296297        0.259179        0        
C3        C        0.3125        0.314815        0.259179        0        
C4        C        0.34375        0.259259        0.259179        0        
C1        C        0.3125        0.351852        0.259179        0        
C2        C        0.34375        0.407408        0.259179        0        
C3        C        0.3125        0.42592500000000005        0.259179        0        
C4        C        0.34375        0.37037        0.259179        0        
C1        C        0.3125        0.46296300000000007        0.259179        0        
C2        C        0.34375        0.518519        0.259179        0        
C3        C        0.3125        0.537037        0.259179        0        
C4        C        0.34375        0.481481        0.259179        0        
C1        C        0.3125        0.574075        0.259179        0        
C2        C        0.34375        0.62963        0.259179        0        
C3        C        0.3125        0.648148        0.259179        0        
C4        C        0.34375        0.592592        0.259179        0        
C1        C        0.375        0.018519        0.259179        0        
C2        C        0.40625        0.074075        0.259179        0        
C3        C        0.375        0.092592        0.259179        0        
C4        C        0.40625        0.037037        0.259179        0        
C1        C        0.375        0.12963        0.259179        0        
C2        C        0.40625        0.185185        0.259179        0        
C3        C        0.375        0.203703        0.259179        0        
C4        C        0.40625        0.148148        0.259179        0        
C1        C        0.375        0.24074099999999998        0.259179        0        
C2        C        0.40625        0.296297        0.259179        0        
C3        C        0.375        0.314815        0.259179        0        
C4        C        0.40625        0.259259        0.259179        0        
C1        C        0.375        0.351852        0.259179        0        
C2        C        0.40625        0.407408        0.259179        0        
C3        C        0.375        0.42592500000000005        0.259179        0        
C4        C        0.40625        0.37037        0.259179        0        
C1        C        0.375        0.46296300000000007        0.259179        0        
C2        C        0.40625        0.518519        0.259179        0        
C3        C        0.375        0.537037        0.259179        0        
C4        C        0.40625        0.481481        0.259179        0        
C1        C        0.375        0.574075        0.259179        0        
C2        C        0.40625        0.62963        0.259179        0        
C3        C        0.375        0.648148        0.259179        0        
C4        C        0.40625        0.592592        0.259179        0        
C1        C        0.4375        0.018519        0.259179        0        
C2        C        0.46875        0.074075        0.259179        0        
C3        C        0.4375        0.092592        0.259179        0        
C4        C        0.46875        0.037037        0.259179        0        
C1        C        0.4375        0.12963        0.259179        0        
C2        C        0.46875        0.185185        0.259179        0        
C3        C        0.4375        0.203703        0.259179        0        
C4        C        0.46875        0.148148        0.259179        0        
C1        C        0.4375        0.24074099999999998        0.259179        0        
C2        C        0.46875        0.296297        0.259179        0        
C3        C        0.4375        0.314815        0.259179        0        
C4        C        0.46875        0.259259        0.259179        0        
C1        C        0.4375        0.351852        0.259179        0        
C2        C        0.46875        0.407408        0.259179        0        
C3        C        0.4375        0.42592500000000005        0.259179        0        
C4        C        0.46875        0.37037        0.259179        0        
C1        C        0.4375        0.46296300000000007        0.259179        0        
C2        C        0.46875        0.518519        0.259179        0        
C3        C        0.4375        0.537037        0.259179        0        
C4        C        0.46875        0.481481        0.259179        0        
C1        C        0.4375        0.574075        0.259179        0        
C2        C        0.46875        0.62963        0.259179        0        
C3        C        0.4375        0.648148        0.259179        0        
C4        C        0.46875        0.592592        0.259179        0        
C1        C        0.5        0.018519        0.259179        0        
C2        C        0.53125        0.074075        0.259179        0        
C3        C        0.5        0.092592        0.259179        0        
C4        C        0.53125        0.037037        0.259179        0        
C1        C        0.5        0.12963        0.259179        0        
C2        C        0.53125        0.185185        0.259179        0        
C3        C        0.5        0.203703        0.259179        0        
C4        C        0.53125        0.148148        0.259179        0        
C1        C        0.5        0.24074099999999998        0.259179        0        
C2        C        0.53125        0.296297        0.259179        0        
C3        C        0.5        0.314815        0.259179        0        
C4        C        0.53125        0.259259        0.259179        0        
C1        C        0.5        0.351852        0.259179        0        
C2        C        0.53125        0.407408        0.259179        0        
C3        C        0.5        0.42592500000000005        0.259179        0        
C4        C        0.53125        0.37037        0.259179        0        
C1        C        0.5        0.46296300000000007        0.259179        0        
C2        C        0.53125        0.518519        0.259179        0        
C3        C        0.5        0.537037        0.259179        0        
C4        C        0.53125        0.481481        0.259179        0        
C1        C        0.5        0.574075        0.259179        0        
C2        C        0.53125        0.62963        0.259179        0        
C3        C        0.5        0.648148        0.259179        0        
C4        C        0.53125        0.592592        0.259179        0        
C1        C        0.5625        0.018519        0.259179        0        
C2        C        0.59375        0.074075        0.259179        0        
C3        C        0.5625        0.092592        0.259179        0        
C4        C        0.59375        0.037037        0.259179        0        
C1        C        0.5625        0.12963        0.259179        0        
C2        C        0.59375        0.185185        0.259179        0        
C3        C        0.5625        0.203703        0.259179        0        
C4        C        0.59375        0.148148        0.259179        0        
C1        C        0.5625        0.24074099999999998        0.259179        0        
C2        C        0.59375        0.296297        0.259179        0        
C3        C        0.5625        0.314815        0.259179        0        
C4        C        0.59375        0.259259        0.259179        0        
C1        C        0.5625        0.351852        0.259179        0        
C2        C        0.59375        0.407408        0.259179        0        
C3        C        0.5625        0.42592500000000005        0.259179        0        
C4        C        0.59375        0.37037        0.259179        0        
C1        C        0.5625        0.46296300000000007        0.259179        0        
C2        C        0.59375        0.518519        0.259179        0        
C3        C        0.5625        0.537037        0.259179        0        
C4        C        0.59375        0.481481        0.259179        0        
C1        C        0.5625        0.574075        0.259179        0        
C2        C        0.59375        0.62963        0.259179        0        
C3        C        0.5625        0.648148        0.259179        0        
C4        C        0.59375        0.592592        0.259179        0        
C1        C        0.625        0.018519        0.259179        0        
C2        C        0.65625        0.074075        0.259179        0        
C3        C        0.625        0.092592        0.259179        0        
C4        C        0.65625        0.037037        0.259179        0        
C1        C        0.625        0.12963        0.259179        0        
C2        C        0.65625        0.185185        0.259179        0        
C3        C        0.625        0.203703        0.259179        0        
C4        C        0.65625        0.148148        0.259179        0        
C1        C        0.625        0.24074099999999998        0.259179        0        
C2        C        0.65625        0.296297        0.259179        0        
C3        C        0.625        0.314815        0.259179        0        
C4        C        0.65625        0.259259        0.259179        0        
C1        C        0.625        0.351852        0.259179        0        
C2        C        0.65625        0.407408        0.259179        0        
C3        C        0.625        0.42592500000000005        0.259179        0        
C4        C        0.65625        0.37037        0.259179        0        
C1        C        0.625        0.46296300000000007        0.259179        0        
C2        C        0.65625        0.518519        0.259179        0        
C3        C        0.625        0.537037        0.259179        0        
C4        C        0.65625        0.481481        0.259179        0        
C1        C        0.625        0.574075        0.259179        0        
C2        C        0.65625        0.62963        0.259179        0        
C3        C        0.625        0.648148        0.259179        0        
C4        C        0.65625        0.592592        0.259179        0        
C1        C        0.6875        0.018519        0.259179        0        
C2        C        0.71875        0.074075        0.259179        0        
C3        C        0.6875        0.092592        0.259179        0        
C4        C        0.71875        0.037037        0.259179        0        
C1        C        0.6875        0.12963        0.259179        0        
C2        C        0.71875        0.185185        0.259179        0        
C3        C        0.6875        0.203703        0.259179        0        
C4        C        0.71875        0.148148        0.259179        0        
C1        C        0.6875        0.24074099999999998        0.259179        0        
C2        C        0.71875        0.296297        0.259179        0        
C3        C        0.6875        0.314815        0.259179        0        
C4        C        0.71875        0.259259        0.259179        0        
C1        C        0.6875        0.351852        0.259179        0        
C2        C        0.71875        0.407408        0.259179        0        
C3        C        0.6875        0.42592500000000005        0.259179        0        
C4        C        0.71875        0.37037        0.259179        0        
C1        C        0.6875        0.46296300000000007        0.259179        0        
C2        C        0.71875        0.518519        0.259179        0        
C3        C        0.6875        0.537037        0.259179        0        
C4        C        0.71875        0.481481        0.259179        0        
C1        C        0.6875        0.574075        0.259179        0        
C2        C        0.71875        0.62963        0.259179        0        
C3        C        0.6875        0.648148        0.259179        0        
C4        C        0.71875        0.592592        0.259179        0        
C1        C        0.75        0.018519        0.259179        0        
C2        C        0.78125        0.074075        0.259179        0        
C3        C        0.75        0.092592        0.259179        0        
C4        C        0.78125        0.037037        0.259179        0        
C1        C        0.75        0.12963        0.259179        0        
C2        C        0.78125        0.185185        0.259179        0        
C3        C        0.75        0.203703        0.259179        0        
C4        C        0.78125        0.148148        0.259179        0        
C1        C        0.75        0.24074099999999998        0.259179        0        
C2        C        0.78125        0.296297        0.259179        0        
C3        C        0.75        0.314815        0.259179        0        
C4        C        0.78125        0.259259        0.259179        0        
C1        C        0.75        0.351852        0.259179        0        
C2        C        0.78125        0.407408        0.259179        0        
C3        C        0.75        0.42592500000000005        0.259179        0        
C4        C        0.78125        0.37037        0.259179        0        
C1        C        0.75        0.46296300000000007        0.259179        0        
C2        C        0.78125        0.518519        0.259179        0        
C3        C        0.75        0.537037        0.259179        0        
C4        C        0.78125        0.481481        0.259179        0        
C1        C        0.75        0.574075        0.259179        0        
C2        C        0.78125        0.62963        0.259179        0        
C3        C        0.75        0.648148        0.259179        0        
C4        C        0.78125        0.592592        0.259179        0        
C1        C        0.8125        0.018519        0.259179        0        
C2        C        0.84375        0.074075        0.259179        0        
C3        C        0.8125        0.092592        0.259179        0        
C4        C        0.84375        0.037037        0.259179        0        
C1        C        0.8125        0.12963        0.259179        0        
C2        C        0.84375        0.185185        0.259179        0        
C3        C        0.8125        0.203703        0.259179        0        
C4        C        0.84375        0.148148        0.259179        0        
C1        C        0.8125        0.24074099999999998        0.259179        0        
C2        C        0.84375        0.296297        0.259179        0        
C3        C        0.8125        0.314815        0.259179        0        
C4        C        0.84375        0.259259        0.259179        0        
C1        C        0.8125        0.351852        0.259179        0        
C2        C        0.84375        0.407408        0.259179        0        
C3        C        0.8125        0.42592500000000005        0.259179        0        
C4        C        0.84375        0.37037        0.259179        0        
C1        C        0.8125        0.46296300000000007        0.259179        0        
C2        C        0.84375        0.518519        0.259179        0        
C3        C        0.8125        0.537037        0.259179        0        
C4        C        0.84375        0.481481        0.259179        0        
C1        C        0.8125        0.574075        0.259179        0        
C2        C        0.84375        0.62963        0.259179        0        
C3        C        0.8125        0.648148        0.259179        0        
C4        C        0.84375        0.592592        0.259179        0        
C1        C        0.875        0.018519        0.259179        0        
C2        C        0.9062500000000001        0.074075        0.259179        0        
C3        C        0.875        0.092592        0.259179        0        
C4        C        0.9062500000000001        0.037037        0.259179        0        
C1        C        0.875        0.12963        0.259179        0        
C2        C        0.9062500000000001        0.185185        0.259179        0        
C3        C        0.875        0.203703        0.259179        0        
C4        C        0.9062500000000001        0.148148        0.259179        0        
C1        C        0.875        0.24074099999999998        0.259179        0        
C2        C        0.9062500000000001        0.296297        0.259179        0        
C3        C        0.875        0.314815        0.259179        0        
C4        C        0.9062500000000001        0.259259        0.259179        0        
C1        C        0.875        0.351852        0.259179        0        
C2        C        0.9062500000000001        0.407408        0.259179        0        
C3        C        0.875        0.42592500000000005        0.259179        0        
C4        C        0.9062500000000001        0.37037        0.259179        0        
C1        C        0.875        0.46296300000000007        0.259179        0        
C2        C        0.9062500000000001        0.518519        0.259179        0        
C3        C        0.875        0.537037        0.259179        0        
C4        C        0.9062500000000001        0.481481        0.259179        0        
C1        C        0.875        0.574075        0.259179        0        
C2        C        0.9062500000000001        0.62963        0.259179        0        
C3        C        0.875        0.648148        0.259179        0        
C4        C        0.9062500000000001        0.592592        0.259179        0        
C1        C        0.9375        0.018519        0.259179        0        
C2        C        0.9687500000000001        0.074075        0.259179        0        
C3        C        0.9375        0.092592        0.259179        0        
C4        C        0.9687500000000001        0.037037        0.259179        0        
C1        C        0.9375        0.12963        0.259179        0        
C2        C        0.9687500000000001        0.185185        0.259179        0        
C3        C        0.9375        0.203703        0.259179        0        
C4        C        0.9687500000000001        0.148148        0.259179        0        
C1        C        0.9375        0.24074099999999998        0.259179        0        
C2        C        0.9687500000000001        0.296297        0.259179        0        
C3        C        0.9375        0.314815        0.259179        0        
C4        C        0.9687500000000001        0.259259        0.259179        0        
C1        C        0.9375        0.351852        0.259179        0        
C2        C        0.9687500000000001        0.407408        0.259179        0        
C3        C        0.9375        0.42592500000000005        0.259179        0        
C4        C        0.9687500000000001        0.37037        0.259179        0        
C1        C        0.9375        0.46296300000000007        0.259179        0        
C2        C        0.9687500000000001        0.518519        0.259179        0        
C3        C        0.9375        0.537037        0.259179        0        
C4        C        0.9687500000000001        0.481481        0.259179        0        
C1        C        0.9375        0.574075        0.259179        0        
C2        C        0.9687500000000001        0.62963        0.259179        0        
C3        C        0.9375        0.648148        0.259179        0        
C4        C        0.9687500000000001        0.592592        0.259179        0        
C1        C        0.0        0.685186        0.259179        0        
C1        C        0.0625        0.685186        0.259179        0        
C1        C        0.125        0.685186        0.259179        0        
C1        C        0.1875        0.685186        0.259179        0        
C1        C        0.25        0.685186        0.259179        0        
C1        C        0.3125        0.685186        0.259179        0        
C1        C        0.375        0.685186        0.259179        0        
C1        C        0.4375        0.685186        0.259179        0        
C1        C        0.5        0.685186        0.259179        0        
C1        C        0.5625        0.685186        0.259179        0        
C1        C        0.625        0.685186        0.259179        0        
C1        C        0.6875        0.685186        0.259179        0        
C1        C        0.75        0.685186        0.259179        0        
C1        C        0.8125        0.685186        0.259179        0        
C1        C        0.875        0.685186        0.259179        0        
C1        C        0.9375        0.685186        0.259179        0        
C2        C        0.03125        0.740741        0.259179        0        
C2        C        0.09375        0.740741        0.259179        0        
C2        C        0.15625        0.740741        0.259179        0        
C2        C        0.21875        0.740741        0.259179        0        
C2        C        0.28125        0.740741        0.259179        0        
C2        C        0.34375        0.740741        0.259179        0        
C2        C        0.40625        0.740741        0.259179        0        
C2        C        0.46875        0.740741        0.259179        0        
C2        C        0.53125        0.740741        0.259179        0        
C2        C        0.59375        0.740741        0.259179        0        
C2        C        0.65625        0.740741        0.259179        0        
C2        C        0.71875        0.740741        0.259179        0        
C2        C        0.78125        0.740741        0.259179        0        
C2        C        0.84375        0.740741        0.259179        0        
C2        C        0.9062500000000001        0.740741        0.259179        0        
C2        C        0.9687500000000001        0.740741        0.259179        0        
C3        C        0.0        0.759259        0.259179        0        
C3        C        0.0625        0.759259        0.259179        0        
C3        C        0.125        0.759259        0.259179        0        
C3        C        0.1875        0.759259        0.259179        0        
C3        C        0.25        0.759259        0.259179        0        
C3        C        0.3125        0.759259        0.259179        0        
C3        C        0.375        0.759259        0.259179        0        
C3        C        0.4375        0.759259        0.259179        0        
C3        C        0.5        0.759259        0.259179        0        
C3        C        0.5625        0.759259        0.259179        0        
C3        C        0.625        0.759259        0.259179        0        
C3        C        0.6875        0.759259        0.259179        0        
C3        C        0.75        0.759259        0.259179        0        
C3        C        0.8125        0.759259        0.259179        0        
C3        C        0.875        0.759259        0.259179        0        
C3        C        0.9375        0.759259        0.259179        0        
C4        C        0.03125        0.703703        0.259179        0        
C4        C        0.09375        0.703703        0.259179        0        
C4        C        0.15625        0.703703        0.259179        0        
C4        C        0.21875        0.703703        0.259179        0        
C4        C        0.28125        0.703703        0.259179        0        
C4        C        0.34375        0.703703        0.259179        0        
C4        C        0.40625        0.703703        0.259179        0        
C4        C        0.46875        0.703703        0.259179        0        
C4        C        0.53125        0.703703        0.259179        0        
C4        C        0.59375        0.703703        0.259179        0        
C4        C        0.65625        0.703703        0.259179        0        
C4        C        0.71875        0.703703        0.259179        0        
C4        C        0.78125        0.703703        0.259179        0        
C4        C        0.84375        0.703703        0.259179        0        
C4        C        0.9062500000000001        0.703703        0.259179        0        
C4        C        0.9687500000000001        0.703703        0.259179        0        
C1        C        0.0        0.796297        0.259179        0        
C1        C        0.0625        0.796297        0.259179        0        
C1        C        0.125        0.796297        0.259179        0        
C1        C        0.1875        0.796297        0.259179        0        
C1        C        0.25        0.796297        0.259179        0        
C1        C        0.3125        0.796297        0.259179        0        
C1        C        0.375        0.796297        0.259179        0        
C1        C        0.4375        0.796297        0.259179        0        
C1        C        0.5        0.796297        0.259179        0        
C1        C        0.5625        0.796297        0.259179        0        
C1        C        0.625        0.796297        0.259179        0        
C1        C        0.6875        0.796297        0.259179        0        
C1        C        0.75        0.796297        0.259179        0        
C1        C        0.8125        0.796297        0.259179        0        
C1        C        0.875        0.796297        0.259179        0        
C1        C        0.9375        0.796297        0.259179        0        
C2        C        0.03125        0.851852        0.259179        0        
C2        C        0.09375        0.851852        0.259179        0        
C2        C        0.15625        0.851852        0.259179        0        
C2        C        0.21875        0.851852        0.259179        0        
C2        C        0.28125        0.851852        0.259179        0        
C2        C        0.34375        0.851852        0.259179        0        
C2        C        0.40625        0.851852        0.259179        0        
C2        C        0.46875        0.851852        0.259179        0        
C2        C        0.53125        0.851852        0.259179        0        
C2        C        0.59375        0.851852        0.259179        0        
C2        C        0.65625        0.851852        0.259179        0        
C2        C        0.71875        0.851852        0.259179        0        
C2        C        0.78125        0.851852        0.259179        0        
C2        C        0.84375        0.851852        0.259179        0        
C2        C        0.9062500000000001        0.851852        0.259179        0        
C2        C        0.9687500000000001        0.851852        0.259179        0        
C3        C        0.0        0.87037        0.259179        0        
C3        C        0.0625        0.87037        0.259179        0        
C3        C        0.125        0.87037        0.259179        0        
C3        C        0.1875        0.87037        0.259179        0        
C3        C        0.25        0.87037        0.259179        0        
C3        C        0.3125        0.87037        0.259179        0        
C3        C        0.375        0.87037        0.259179        0        
C3        C        0.4375        0.87037        0.259179        0        
C3        C        0.5        0.87037        0.259179        0        
C3        C        0.5625        0.87037        0.259179        0        
C3        C        0.625        0.87037        0.259179        0        
C3        C        0.6875        0.87037        0.259179        0        
C3        C        0.75        0.87037        0.259179        0        
C3        C        0.8125        0.87037        0.259179        0        
C3        C        0.875        0.87037        0.259179        0        
C3        C        0.9375        0.87037        0.259179        0        
C4        C        0.03125        0.814814        0.259179        0        
C4        C        0.09375        0.814814        0.259179        0        
C4        C        0.15625        0.814814        0.259179        0        
C4        C        0.21875        0.814814        0.259179        0        
C4        C        0.28125        0.814814        0.259179        0        
C4        C        0.34375        0.814814        0.259179        0        
C4        C        0.40625        0.814814        0.259179        0        
C4        C        0.46875        0.814814        0.259179        0        
C4        C        0.53125        0.814814        0.259179        0        
C4        C        0.59375        0.814814        0.259179        0        
C4        C        0.65625        0.814814        0.259179        0        
C4        C        0.71875        0.814814        0.259179        0        
C4        C        0.78125        0.814814        0.259179        0        
C4        C        0.84375        0.814814        0.259179        0        
C4        C        0.9062500000000001        0.814814        0.259179        0        
C4        C        0.9687500000000001        0.814814        0.259179        0        
C1        C        0.0        0.907408        0.259179        0        
C1        C        0.0625        0.907408        0.259179        0        
C1        C        0.125        0.907408        0.259179        0        
C1        C        0.1875        0.907408        0.259179        0        
C1        C        0.25        0.907408        0.259179        0        
C1        C        0.3125        0.907408        0.259179        0        
C1        C        0.375        0.907408        0.259179        0        
C1        C        0.4375        0.907408        0.259179        0        
C1        C        0.5        0.907408        0.259179        0        
C1        C        0.5625        0.907408        0.259179        0        
C1        C        0.625        0.907408        0.259179        0        
C1        C        0.6875        0.907408        0.259179        0        
C1        C        0.75        0.907408        0.259179        0        
C1        C        0.8125        0.907408        0.259179        0        
C1        C        0.875        0.907408        0.259179        0        
C1        C        0.9375        0.907408        0.259179        0        
C2        C        0.03125        0.962963        0.259179        0        
C2        C        0.09375        0.962963        0.259179        0        
C2        C        0.15625        0.962963        0.259179        0        
C2        C        0.21875        0.962963        0.259179        0        
C2        C        0.28125        0.962963        0.259179        0        
C2        C        0.34375        0.962963        0.259179        0        
C2        C        0.40625        0.962963        0.259179        0        
C2        C        0.46875        0.962963        0.259179        0        
C2        C        0.53125        0.962963        0.259179        0        
C2        C        0.59375        0.962963        0.259179        0        
C2        C        0.65625        0.962963        0.259179        0        
C2        C        0.71875        0.962963        0.259179        0        
C2        C        0.78125        0.962963        0.259179        0        
C2        C        0.84375        0.962963        0.259179        0        
C2        C        0.9062500000000001        0.962963        0.259179        0        
C2        C        0.9687500000000001        0.962963        0.259179        0        
C3        C        0.0        0.9814809999999999        0.259179        0        
C3        C        0.0625        0.9814809999999999        0.259179        0        
C3        C        0.125        0.9814809999999999        0.259179        0        
C3        C        0.1875        0.9814809999999999        0.259179        0        
C3        C        0.25        0.9814809999999999        0.259179        0        
C3        C        0.3125        0.9814809999999999        0.259179        0        
C3        C        0.375        0.9814809999999999        0.259179        0        
C3        C        0.4375        0.9814809999999999        0.259179        0        
C3        C        0.5        0.9814809999999999        0.259179        0        
C3        C        0.5625        0.9814809999999999        0.259179        0        
C3        C        0.625        0.9814809999999999        0.259179        0        
C3        C        0.6875        0.9814809999999999        0.259179        0        
C3        C        0.75        0.9814809999999999        0.259179        0        
C3        C        0.8125        0.9814809999999999        0.259179        0        
C3        C        0.875        0.9814809999999999        0.259179        0        
C3        C        0.9375        0.9814809999999999        0.259179        0        
C4        C        0.03125        0.925925        0.259179        0        
C4        C        0.09375        0.925925        0.259179        0        
C4        C        0.15625        0.925925        0.259179        0        
C4        C        0.21875        0.925925        0.259179        0        
C4        C        0.28125        0.925925        0.259179        0        
C4        C        0.34375        0.925925        0.259179        0        
C4        C        0.40625        0.925925        0.259179        0        
C4        C        0.46875        0.925925        0.259179        0        
C4        C        0.53125        0.925925        0.259179        0        
C4        C        0.59375        0.925925        0.259179        0        
C4        C        0.65625        0.925925        0.259179        0        
C4        C        0.71875        0.925925        0.259179        0        
C4        C        0.78125        0.925925        0.259179        0        
C4        C        0.84375        0.925925        0.259179        0        
C4        C        0.9062500000000001        0.925925        0.259179        0        
C4        C        0.9687500000000001        0.925925        0.259179        0        
C1        C        0.0        0.018519        0.331534        0        
C2        C        0.03125        0.074075        0.331534        0        
C3        C        0.0        0.092592        0.331534        0        
C4        C        0.03125        0.037037        0.331534        0        
C1        C        0.0        0.12963        0.331534        0        
C2        C        0.03125        0.185185        0.331534        0        
C3        C        0.0        0.203703        0.331534        0        
C4        C        0.03125        0.148148        0.331534        0        
C1        C        0.0        0.24074099999999998        0.331534        0        
C2        C        0.03125        0.296297        0.331534        0        
C3        C        0.0        0.314815        0.331534        0        
C4        C        0.03125        0.259259        0.331534        0        
C1        C        0.0        0.351852        0.331534        0        
C2        C        0.03125        0.407408        0.331534        0        
C3        C        0.0        0.42592500000000005        0.331534        0        
C4        C        0.03125        0.37037        0.331534        0        
C1        C        0.0        0.46296300000000007        0.331534        0        
C2        C        0.03125        0.518519        0.331534        0        
C3        C        0.0        0.537037        0.331534        0        
C4        C        0.03125        0.481481        0.331534        0        
C1        C        0.0        0.574075        0.331534        0        
C2        C        0.03125        0.62963        0.331534        0        
C3        C        0.0        0.648148        0.331534        0        
C4        C        0.03125        0.592592        0.331534        0        
C1        C        0.0625        0.018519        0.331534        0        
C2        C        0.09375        0.074075        0.331534        0        
C3        C        0.0625        0.092592        0.331534        0        
C4        C        0.09375        0.037037        0.331534        0        
C1        C        0.0625        0.12963        0.331534        0        
C2        C        0.09375        0.185185        0.331534        0        
C3        C        0.0625        0.203703        0.331534        0        
C4        C        0.09375        0.148148        0.331534        0        
C1        C        0.0625        0.24074099999999998        0.331534        0        
C2        C        0.09375        0.296297        0.331534        0        
C3        C        0.0625        0.314815        0.331534        0        
C4        C        0.09375        0.259259        0.331534        0        
C1        C        0.0625        0.351852        0.331534        0        
C2        C        0.09375        0.407408        0.331534        0        
C3        C        0.0625        0.42592500000000005        0.331534        0        
C4        C        0.09375        0.37037        0.331534        0        
C1        C        0.0625        0.46296300000000007        0.331534        0        
C2        C        0.09375        0.518519        0.331534        0        
C3        C        0.0625        0.537037        0.331534        0        
C4        C        0.09375        0.481481        0.331534        0        
C1        C        0.0625        0.574075        0.331534        0        
C2        C        0.09375        0.62963        0.331534        0        
C3        C        0.0625        0.648148        0.331534        0        
C4        C        0.09375        0.592592        0.331534        0        
C1        C        0.125        0.018519        0.331534        0        
C2        C        0.15625        0.074075        0.331534        0        
C3        C        0.125        0.092592        0.331534        0        
C4        C        0.15625        0.037037        0.331534        0        
C1        C        0.125        0.12963        0.331534        0        
C2        C        0.15625        0.185185        0.331534        0        
C3        C        0.125        0.203703        0.331534        0        
C4        C        0.15625        0.148148        0.331534        0        
C1        C        0.125        0.24074099999999998        0.331534        0        
C2        C        0.15625        0.296297        0.331534        0        
C3        C        0.125        0.314815        0.331534        0        
C4        C        0.15625        0.259259        0.331534        0        
C1        C        0.125        0.351852        0.331534        0        
C2        C        0.15625        0.407408        0.331534        0        
C3        C        0.125        0.42592500000000005        0.331534        0        
C4        C        0.15625        0.37037        0.331534        0        
C1        C        0.125        0.46296300000000007        0.331534        0        
C2        C        0.15625        0.518519        0.331534        0        
C3        C        0.125        0.537037        0.331534        0        
C4        C        0.15625        0.481481        0.331534        0        
C1        C        0.125        0.574075        0.331534        0        
C2        C        0.15625        0.62963        0.331534        0        
C3        C        0.125        0.648148        0.331534        0        
C4        C        0.15625        0.592592        0.331534        0        
C1        C        0.1875        0.018519        0.331534        0        
C2        C        0.21875        0.074075        0.331534        0        
C3        C        0.1875        0.092592        0.331534        0        
C4        C        0.21875        0.037037        0.331534        0        
C1        C        0.1875        0.12963        0.331534        0        
C2        C        0.21875        0.185185        0.331534        0        
C3        C        0.1875        0.203703        0.331534        0        
C4        C        0.21875        0.148148        0.331534        0        
C1        C        0.1875        0.24074099999999998        0.331534        0        
C2        C        0.21875        0.296297        0.331534        0        
C3        C        0.1875        0.314815        0.331534        0        
C4        C        0.21875        0.259259        0.331534        0        
C1        C        0.1875        0.351852        0.331534        0        
C2        C        0.21875        0.407408        0.331534        0        
C3        C        0.1875        0.42592500000000005        0.331534        0        
C4        C        0.21875        0.37037        0.331534        0        
C1        C        0.1875        0.46296300000000007        0.331534        0        
C2        C        0.21875        0.518519        0.331534        0        
C3        C        0.1875        0.537037        0.331534        0        
C4        C        0.21875        0.481481        0.331534        0        
C1        C        0.1875        0.574075        0.331534        0        
C2        C        0.21875        0.62963        0.331534        0        
C3        C        0.1875        0.648148        0.331534        0        
C4        C        0.21875        0.592592        0.331534        0        
C1        C        0.25        0.018519        0.331534        0        
C2        C        0.28125        0.074075        0.331534        0        
C3        C        0.25        0.092592        0.331534        0        
C4        C        0.28125        0.037037        0.331534        0        
C1        C        0.25        0.12963        0.331534        0        
C2        C        0.28125        0.185185        0.331534        0        
C3        C        0.25        0.203703        0.331534        0        
C4        C        0.28125        0.148148        0.331534        0        
C1        C        0.25        0.24074099999999998        0.331534        0        
C2        C        0.28125        0.296297        0.331534        0        
C3        C        0.25        0.314815        0.331534        0        
C4        C        0.28125        0.259259        0.331534        0        
C1        C        0.25        0.351852        0.331534        0        
C2        C        0.28125        0.407408        0.331534        0        
C3        C        0.25        0.42592500000000005        0.331534        0        
C4        C        0.28125        0.37037        0.331534        0        
C1        C        0.25        0.46296300000000007        0.331534        0        
C2        C        0.28125        0.518519        0.331534        0        
C3        C        0.25        0.537037        0.331534        0        
C4        C        0.28125        0.481481        0.331534        0        
C1        C        0.25        0.574075        0.331534        0        
C2        C        0.28125        0.62963        0.331534        0        
C3        C        0.25        0.648148        0.331534        0        
C4        C        0.28125        0.592592        0.331534        0        
C1        C        0.3125        0.018519        0.331534        0        
C2        C        0.34375        0.074075        0.331534        0        
C3        C        0.3125        0.092592        0.331534        0        
C4        C        0.34375        0.037037        0.331534        0        
C1        C        0.3125        0.12963        0.331534        0        
C2        C        0.34375        0.185185        0.331534        0        
C3        C        0.3125        0.203703        0.331534        0        
C4        C        0.34375        0.148148        0.331534        0        
C1        C        0.3125        0.24074099999999998        0.331534        0        
C2        C        0.34375        0.296297        0.331534        0        
C3        C        0.3125        0.314815        0.331534        0        
C4        C        0.34375        0.259259        0.331534        0        
C1        C        0.3125        0.351852        0.331534        0        
C2        C        0.34375        0.407408        0.331534        0        
C3        C        0.3125        0.42592500000000005        0.331534        0        
C4        C        0.34375        0.37037        0.331534        0        
C1        C        0.3125        0.46296300000000007        0.331534        0        
C2        C        0.34375        0.518519        0.331534        0        
C3        C        0.3125        0.537037        0.331534        0        
C4        C        0.34375        0.481481        0.331534        0        
C1        C        0.3125        0.574075        0.331534        0        
C2        C        0.34375        0.62963        0.331534        0        
C3        C        0.3125        0.648148        0.331534        0        
C4        C        0.34375        0.592592        0.331534        0        
C1        C        0.375        0.018519        0.331534        0        
C2        C        0.40625        0.074075        0.331534        0        
C3        C        0.375        0.092592        0.331534        0        
C4        C        0.40625        0.037037        0.331534        0        
C1        C        0.375        0.12963        0.331534        0        
C2        C        0.40625        0.185185        0.331534        0        
C3        C        0.375        0.203703        0.331534        0        
C4        C        0.40625        0.148148        0.331534        0        
C1        C        0.375        0.24074099999999998        0.331534        0        
C2        C        0.40625        0.296297        0.331534        0        
C3        C        0.375        0.314815        0.331534        0        
C4        C        0.40625        0.259259        0.331534        0        
C1        C        0.375        0.351852        0.331534        0        
C2        C        0.40625        0.407408        0.331534        0        
C3        C        0.375        0.42592500000000005        0.331534        0        
C4        C        0.40625        0.37037        0.331534        0        
C1        C        0.375        0.46296300000000007        0.331534        0        
C2        C        0.40625        0.518519        0.331534        0        
C3        C        0.375        0.537037        0.331534        0        
C4        C        0.40625        0.481481        0.331534        0        
C1        C        0.375        0.574075        0.331534        0        
C2        C        0.40625        0.62963        0.331534        0        
C3        C        0.375        0.648148        0.331534        0        
C4        C        0.40625        0.592592        0.331534        0        
C1        C        0.4375        0.018519        0.331534        0        
C2        C        0.46875        0.074075        0.331534        0        
C3        C        0.4375        0.092592        0.331534        0        
C4        C        0.46875        0.037037        0.331534        0        
C1        C        0.4375        0.12963        0.331534        0        
C2        C        0.46875        0.185185        0.331534        0        
C3        C        0.4375        0.203703        0.331534        0        
C4        C        0.46875        0.148148        0.331534        0        
C1        C        0.4375        0.24074099999999998        0.331534        0        
C2        C        0.46875        0.296297        0.331534        0        
C3        C        0.4375        0.314815        0.331534        0        
C4        C        0.46875        0.259259        0.331534        0        
C1        C        0.4375        0.351852        0.331534        0        
C2        C        0.46875        0.407408        0.331534        0        
C3        C        0.4375        0.42592500000000005        0.331534        0        
C4        C        0.46875        0.37037        0.331534        0        
C1        C        0.4375        0.46296300000000007        0.331534        0        
C2        C        0.46875        0.518519        0.331534        0        
C3        C        0.4375        0.537037        0.331534        0        
C4        C        0.46875        0.481481        0.331534        0        
C1        C        0.4375        0.574075        0.331534        0        
C2        C        0.46875        0.62963        0.331534        0        
C3        C        0.4375        0.648148        0.331534        0        
C4        C        0.46875        0.592592        0.331534        0        
C1        C        0.5        0.018519        0.331534        0        
C2        C        0.53125        0.074075        0.331534        0        
C3        C        0.5        0.092592        0.331534        0        
C4        C        0.53125        0.037037        0.331534        0        
C1        C        0.5        0.12963        0.331534        0        
C2        C        0.53125        0.185185        0.331534        0        
C3        C        0.5        0.203703        0.331534        0        
C4        C        0.53125        0.148148        0.331534        0        
C1        C        0.5        0.24074099999999998        0.331534        0        
C2        C        0.53125        0.296297        0.331534        0        
C3        C        0.5        0.314815        0.331534        0        
C4        C        0.53125        0.259259        0.331534        0        
C1        C        0.5        0.351852        0.331534        0        
C2        C        0.53125        0.407408        0.331534        0        
C3        C        0.5        0.42592500000000005        0.331534        0        
C4        C        0.53125        0.37037        0.331534        0        
C1        C        0.5        0.46296300000000007        0.331534        0        
C2        C        0.53125        0.518519        0.331534        0        
C3        C        0.5        0.537037        0.331534        0        
C4        C        0.53125        0.481481        0.331534        0        
C1        C        0.5        0.574075        0.331534        0        
C2        C        0.53125        0.62963        0.331534        0        
C3        C        0.5        0.648148        0.331534        0        
C4        C        0.53125        0.592592        0.331534        0        
C1        C        0.5625        0.018519        0.331534        0        
C2        C        0.59375        0.074075        0.331534        0        
C3        C        0.5625        0.092592        0.331534        0        
C4        C        0.59375        0.037037        0.331534        0        
C1        C        0.5625        0.12963        0.331534        0        
C2        C        0.59375        0.185185        0.331534        0        
C3        C        0.5625        0.203703        0.331534        0        
C4        C        0.59375        0.148148        0.331534        0        
C1        C        0.5625        0.24074099999999998        0.331534        0        
C2        C        0.59375        0.296297        0.331534        0        
C3        C        0.5625        0.314815        0.331534        0        
C4        C        0.59375        0.259259        0.331534        0        
C1        C        0.5625        0.351852        0.331534        0        
C2        C        0.59375        0.407408        0.331534        0        
C3        C        0.5625        0.42592500000000005        0.331534        0        
C4        C        0.59375        0.37037        0.331534        0        
C1        C        0.5625        0.46296300000000007        0.331534        0        
C2        C        0.59375        0.518519        0.331534        0        
C3        C        0.5625        0.537037        0.331534        0        
C4        C        0.59375        0.481481        0.331534        0        
C1        C        0.5625        0.574075        0.331534        0        
C2        C        0.59375        0.62963        0.331534        0        
C3        C        0.5625        0.648148        0.331534        0        
C4        C        0.59375        0.592592        0.331534        0        
C1        C        0.625        0.018519        0.331534        0        
C2        C        0.65625        0.074075        0.331534        0        
C3        C        0.625        0.092592        0.331534        0        
C4        C        0.65625        0.037037        0.331534        0        
C1        C        0.625        0.12963        0.331534        0        
C2        C        0.65625        0.185185        0.331534        0        
C3        C        0.625        0.203703        0.331534        0        
C4        C        0.65625        0.148148        0.331534        0        
C1        C        0.625        0.24074099999999998        0.331534        0        
C2        C        0.65625        0.296297        0.331534        0        
C3        C        0.625        0.314815        0.331534        0        
C4        C        0.65625        0.259259        0.331534        0        
C1        C        0.625        0.351852        0.331534        0        
C2        C        0.65625        0.407408        0.331534        0        
C3        C        0.625        0.42592500000000005        0.331534        0        
C4        C        0.65625        0.37037        0.331534        0        
C1        C        0.625        0.46296300000000007        0.331534        0        
C2        C        0.65625        0.518519        0.331534        0        
C3        C        0.625        0.537037        0.331534        0        
C4        C        0.65625        0.481481        0.331534        0        
C1        C        0.625        0.574075        0.331534        0        
C2        C        0.65625        0.62963        0.331534        0        
C3        C        0.625        0.648148        0.331534        0        
C4        C        0.65625        0.592592        0.331534        0        
C1        C        0.6875        0.018519        0.331534        0        
C2        C        0.71875        0.074075        0.331534        0        
C3        C        0.6875        0.092592        0.331534        0        
C4        C        0.71875        0.037037        0.331534        0        
C1        C        0.6875        0.12963        0.331534        0        
C2        C        0.71875        0.185185        0.331534        0        
C3        C        0.6875        0.203703        0.331534        0        
C4        C        0.71875        0.148148        0.331534        0        
C1        C        0.6875        0.24074099999999998        0.331534        0        
C2        C        0.71875        0.296297        0.331534        0        
C3        C        0.6875        0.314815        0.331534        0        
C4        C        0.71875        0.259259        0.331534        0        
C1        C        0.6875        0.351852        0.331534        0        
C2        C        0.71875        0.407408        0.331534        0        
C3        C        0.6875        0.42592500000000005        0.331534        0        
C4        C        0.71875        0.37037        0.331534        0        
C1        C        0.6875        0.46296300000000007        0.331534        0        
C2        C        0.71875        0.518519        0.331534        0        
C3        C        0.6875        0.537037        0.331534        0        
C4        C        0.71875        0.481481        0.331534        0        
C1        C        0.6875        0.574075        0.331534        0        
C2        C        0.71875        0.62963        0.331534        0        
C3        C        0.6875        0.648148        0.331534        0        
C4        C        0.71875        0.592592        0.331534        0        
C1        C        0.75        0.018519        0.331534        0        
C2        C        0.78125        0.074075        0.331534        0        
C3        C        0.75        0.092592        0.331534        0        
C4        C        0.78125        0.037037        0.331534        0        
C1        C        0.75        0.12963        0.331534        0        
C2        C        0.78125        0.185185        0.331534        0        
C3        C        0.75        0.203703        0.331534        0        
C4        C        0.78125        0.148148        0.331534        0        
C1        C        0.75        0.24074099999999998        0.331534        0        
C2        C        0.78125        0.296297        0.331534        0        
C3        C        0.75        0.314815        0.331534        0        
C4        C        0.78125        0.259259        0.331534        0        
C1        C        0.75        0.351852        0.331534        0        
C2        C        0.78125        0.407408        0.331534        0        
C3        C        0.75        0.42592500000000005        0.331534        0        
C4        C        0.78125        0.37037        0.331534        0        
C1        C        0.75        0.46296300000000007        0.331534        0        
C2        C        0.78125        0.518519        0.331534        0        
C3        C        0.75        0.537037        0.331534        0        
C4        C        0.78125        0.481481        0.331534        0        
C1        C        0.75        0.574075        0.331534        0        
C2        C        0.78125        0.62963        0.331534        0        
C3        C        0.75        0.648148        0.331534        0        
C4        C        0.78125        0.592592        0.331534        0        
C1        C        0.8125        0.018519        0.331534        0        
C2        C        0.84375        0.074075        0.331534        0        
C3        C        0.8125        0.092592        0.331534        0        
C4        C        0.84375        0.037037        0.331534        0        
C1        C        0.8125        0.12963        0.331534        0        
C2        C        0.84375        0.185185        0.331534        0        
C3        C        0.8125        0.203703        0.331534        0        
C4        C        0.84375        0.148148        0.331534        0        
C1        C        0.8125        0.24074099999999998        0.331534        0        
C2        C        0.84375        0.296297        0.331534        0        
C3        C        0.8125        0.314815        0.331534        0        
C4        C        0.84375        0.259259        0.331534        0        
C1        C        0.8125        0.351852        0.331534        0        
C2        C        0.84375        0.407408        0.331534        0        
C3        C        0.8125        0.42592500000000005        0.331534        0        
C4        C        0.84375        0.37037        0.331534        0        
C1        C        0.8125        0.46296300000000007        0.331534        0        
C2        C        0.84375        0.518519        0.331534        0        
C3        C        0.8125        0.537037        0.331534        0        
C4        C        0.84375        0.481481        0.331534        0        
C1        C        0.8125        0.574075        0.331534        0        
C2        C        0.84375        0.62963        0.331534        0        
C3        C        0.8125        0.648148        0.331534        0        
C4        C        0.84375        0.592592        0.331534        0        
C1        C        0.875        0.018519        0.331534        0        
C2        C        0.9062500000000001        0.074075        0.331534        0        
C3        C        0.875        0.092592        0.331534        0        
C4        C        0.9062500000000001        0.037037        0.331534        0        
C1        C        0.875        0.12963        0.331534        0        
C2        C        0.9062500000000001        0.185185        0.331534        0        
C3        C        0.875        0.203703        0.331534        0        
C4        C        0.9062500000000001        0.148148        0.331534        0        
C1        C        0.875        0.24074099999999998        0.331534        0        
C2        C        0.9062500000000001        0.296297        0.331534        0        
C3        C        0.875        0.314815        0.331534        0        
C4        C        0.9062500000000001        0.259259        0.331534        0        
C1        C        0.875        0.351852        0.331534        0        
C2        C        0.9062500000000001        0.407408        0.331534        0        
C3        C        0.875        0.42592500000000005        0.331534        0        
C4        C        0.9062500000000001        0.37037        0.331534        0        
C1        C        0.875        0.46296300000000007        0.331534        0        
C2        C        0.9062500000000001        0.518519        0.331534        0        
C3        C        0.875        0.537037        0.331534        0        
C4        C        0.9062500000000001        0.481481        0.331534        0        
C1        C        0.875        0.574075        0.331534        0        
C2        C        0.9062500000000001        0.62963        0.331534        0        
C3        C        0.875        0.648148        0.331534        0        
C4        C        0.9062500000000001        0.592592        0.331534        0        
C1        C        0.9375        0.018519        0.331534        0        
C2        C        0.9687500000000001        0.074075        0.331534        0        
C3        C        0.9375        0.092592        0.331534        0        
C4        C        0.9687500000000001        0.037037        0.331534        0        
C1        C        0.9375        0.12963        0.331534        0        
C2        C        0.9687500000000001        0.185185        0.331534        0        
C3        C        0.9375        0.203703        0.331534        0        
C4        C        0.9687500000000001        0.148148        0.331534        0        
C1        C        0.9375        0.24074099999999998        0.331534        0        
C2        C        0.9687500000000001        0.296297        0.331534        0        
C3        C        0.9375        0.314815        0.331534        0        
C4        C        0.9687500000000001        0.259259        0.331534        0        
C1        C        0.9375        0.351852        0.331534        0        
C2        C        0.9687500000000001        0.407408        0.331534        0        
C3        C        0.9375        0.42592500000000005        0.331534        0        
C4        C        0.9687500000000001        0.37037        0.331534        0        
C1        C        0.9375        0.46296300000000007        0.331534        0        
C2        C        0.9687500000000001        0.518519        0.331534        0        
C3        C        0.9375        0.537037        0.331534        0        
C4        C        0.9687500000000001        0.481481        0.331534        0        
C1        C        0.9375        0.574075        0.331534        0        
C2        C        0.9687500000000001        0.62963        0.331534        0        
C3        C        0.9375        0.648148        0.331534        0        
C4        C        0.9687500000000001        0.592592        0.331534        0        
C1        C        0.0        0.685186        0.331534        0        
C1        C        0.0625        0.685186        0.331534        0        
C1        C        0.125        0.685186        0.331534        0        
C1        C        0.1875        0.685186        0.331534        0        
C1        C        0.25        0.685186        0.331534        0        
C1        C        0.3125        0.685186        0.331534        0        
C1        C        0.375        0.685186        0.331534        0        
C1        C        0.4375        0.685186        0.331534        0        
C1        C        0.5        0.685186        0.331534        0        
C1        C        0.5625        0.685186        0.331534        0        
C1        C        0.625        0.685186        0.331534        0        
C1        C        0.6875        0.685186        0.331534        0        
C1        C        0.75        0.685186        0.331534        0        
C1        C        0.8125        0.685186        0.331534        0        
C1        C        0.875        0.685186        0.331534        0        
C1        C        0.9375        0.685186        0.331534        0        
C2        C        0.03125        0.740741        0.331534        0        
C2        C        0.09375        0.740741        0.331534        0        
C2        C        0.15625        0.740741        0.331534        0        
C2        C        0.21875        0.740741        0.331534        0        
C2        C        0.28125        0.740741        0.331534        0        
C2        C        0.34375        0.740741        0.331534        0        
C2        C        0.40625        0.740741        0.331534        0        
C2        C        0.46875        0.740741        0.331534        0        
C2        C        0.53125        0.740741        0.331534        0        
C2        C        0.59375        0.740741        0.331534        0        
C2        C        0.65625        0.740741        0.331534        0        
C2        C        0.71875        0.740741        0.331534        0        
C2        C        0.78125        0.740741        0.331534        0        
C2        C        0.84375        0.740741        0.331534        0        
C2        C        0.9062500000000001        0.740741        0.331534        0        
C2        C        0.9687500000000001        0.740741        0.331534        0        
C3        C        0.0        0.759259        0.331534        0        
C3        C        0.0625        0.759259        0.331534        0        
C3        C        0.125        0.759259        0.331534        0        
C3        C        0.1875        0.759259        0.331534        0        
C3        C        0.25        0.759259        0.331534        0        
C3        C        0.3125        0.759259        0.331534        0        
C3        C        0.375        0.759259        0.331534        0        
C3        C        0.4375        0.759259        0.331534        0        
C3        C        0.5        0.759259        0.331534        0        
C3        C        0.5625        0.759259        0.331534        0        
C3        C        0.625        0.759259        0.331534        0        
C3        C        0.6875        0.759259        0.331534        0        
C3        C        0.75        0.759259        0.331534        0        
C3        C        0.8125        0.759259        0.331534        0        
C3        C        0.875        0.759259        0.331534        0        
C3        C        0.9375        0.759259        0.331534        0        
C4        C        0.03125        0.703703        0.331534        0        
C4        C        0.09375        0.703703        0.331534        0        
C4        C        0.15625        0.703703        0.331534        0        
C4        C        0.21875        0.703703        0.331534        0        
C4        C        0.28125        0.703703        0.331534        0        
C4        C        0.34375        0.703703        0.331534        0        
C4        C        0.40625        0.703703        0.331534        0        
C4        C        0.46875        0.703703        0.331534        0        
C4        C        0.53125        0.703703        0.331534        0        
C4        C        0.59375        0.703703        0.331534        0        
C4        C        0.65625        0.703703        0.331534        0        
C4        C        0.71875        0.703703        0.331534        0        
C4        C        0.78125        0.703703        0.331534        0        
C4        C        0.84375        0.703703        0.331534        0        
C4        C        0.9062500000000001        0.703703        0.331534        0        
C4        C        0.9687500000000001        0.703703        0.331534        0        
C1        C        0.0        0.796297        0.331534        0        
C1        C        0.0625        0.796297        0.331534        0        
C1        C        0.125        0.796297        0.331534        0        
C1        C        0.1875        0.796297        0.331534        0        
C1        C        0.25        0.796297        0.331534        0        
C1        C        0.3125        0.796297        0.331534        0        
C1        C        0.375        0.796297        0.331534        0        
C1        C        0.4375        0.796297        0.331534        0        
C1        C        0.5        0.796297        0.331534        0        
C1        C        0.5625        0.796297        0.331534        0        
C1        C        0.625        0.796297        0.331534        0        
C1        C        0.6875        0.796297        0.331534        0        
C1        C        0.75        0.796297        0.331534        0        
C1        C        0.8125        0.796297        0.331534        0        
C1        C        0.875        0.796297        0.331534        0        
C1        C        0.9375        0.796297        0.331534        0        
C2        C        0.03125        0.851852        0.331534        0        
C2        C        0.09375        0.851852        0.331534        0        
C2        C        0.15625        0.851852        0.331534        0        
C2        C        0.21875        0.851852        0.331534        0        
C2        C        0.28125        0.851852        0.331534        0        
C2        C        0.34375        0.851852        0.331534        0        
C2        C        0.40625        0.851852        0.331534        0        
C2        C        0.46875        0.851852        0.331534        0        
C2        C        0.53125        0.851852        0.331534        0        
C2        C        0.59375        0.851852        0.331534        0        
C2        C        0.65625        0.851852        0.331534        0        
C2        C        0.71875        0.851852        0.331534        0        
C2        C        0.78125        0.851852        0.331534        0        
C2        C        0.84375        0.851852        0.331534        0        
C2        C        0.9062500000000001        0.851852        0.331534        0        
C2        C        0.9687500000000001        0.851852        0.331534        0        
C3        C        0.0        0.87037        0.331534        0        
C3        C        0.0625        0.87037        0.331534        0        
C3        C        0.125        0.87037        0.331534        0        
C3        C        0.1875        0.87037        0.331534        0        
C3        C        0.25        0.87037        0.331534        0        
C3        C        0.3125        0.87037        0.331534        0        
C3        C        0.375        0.87037        0.331534        0        
C3        C        0.4375        0.87037        0.331534        0        
C3        C        0.5        0.87037        0.331534        0        
C3        C        0.5625        0.87037        0.331534        0        
C3        C        0.625        0.87037        0.331534        0        
C3        C        0.6875        0.87037        0.331534        0        
C3        C        0.75        0.87037        0.331534        0        
C3        C        0.8125        0.87037        0.331534        0        
C3        C        0.875        0.87037        0.331534        0        
C3        C        0.9375        0.87037        0.331534        0        
C4        C        0.03125        0.814814        0.331534        0        
C4        C        0.09375        0.814814        0.331534        0        
C4        C        0.15625        0.814814        0.331534        0        
C4        C        0.21875        0.814814        0.331534        0        
C4        C        0.28125        0.814814        0.331534        0        
C4        C        0.34375        0.814814        0.331534        0        
C4        C        0.40625        0.814814        0.331534        0        
C4        C        0.46875        0.814814        0.331534        0        
C4        C        0.53125        0.814814        0.331534        0        
C4        C        0.59375        0.814814        0.331534        0        
C4        C        0.65625        0.814814        0.331534        0        
C4        C        0.71875        0.814814        0.331534        0        
C4        C        0.78125        0.814814        0.331534        0        
C4        C        0.84375        0.814814        0.331534        0        
C4        C        0.9062500000000001        0.814814        0.331534        0        
C4        C        0.9687500000000001        0.814814        0.331534        0        
C1        C        0.0        0.907408        0.331534        0        
C1        C        0.0625        0.907408        0.331534        0        
C1        C        0.125        0.907408        0.331534        0        
C1        C        0.1875        0.907408        0.331534        0        
C1        C        0.25        0.907408        0.331534        0        
C1        C        0.3125        0.907408        0.331534        0        
C1        C        0.375        0.907408        0.331534        0        
C1        C        0.4375        0.907408        0.331534        0        
C1        C        0.5        0.907408        0.331534        0        
C1        C        0.5625        0.907408        0.331534        0        
C1        C        0.625        0.907408        0.331534        0        
C1        C        0.6875        0.907408        0.331534        0        
C1        C        0.75        0.907408        0.331534        0        
C1        C        0.8125        0.907408        0.331534        0        
C1        C        0.875        0.907408        0.331534        0        
C1        C        0.9375        0.907408        0.331534        0        
C2        C        0.03125        0.962963        0.331534        0        
C2        C        0.09375        0.962963        0.331534        0        
C2        C        0.15625        0.962963        0.331534        0        
C2        C        0.21875        0.962963        0.331534        0        
C2        C        0.28125        0.962963        0.331534        0        
C2        C        0.34375        0.962963        0.331534        0        
C2        C        0.40625        0.962963        0.331534        0        
C2        C        0.46875        0.962963        0.331534        0        
C2        C        0.53125        0.962963        0.331534        0        
C2        C        0.59375        0.962963        0.331534        0        
C2        C        0.65625        0.962963        0.331534        0        
C2        C        0.71875        0.962963        0.331534        0        
C2        C        0.78125        0.962963        0.331534        0        
C2        C        0.84375        0.962963        0.331534        0        
C2        C        0.9062500000000001        0.962963        0.331534        0        
C2        C        0.9687500000000001        0.962963        0.331534        0        
C3        C        0.0        0.9814809999999999        0.331534        0        
C3        C        0.0625        0.9814809999999999        0.331534        0        
C3        C        0.125        0.9814809999999999        0.331534        0        
C3        C        0.1875        0.9814809999999999        0.331534        0        
C3        C        0.25        0.9814809999999999        0.331534        0        
C3        C        0.3125        0.9814809999999999        0.331534        0        
C3        C        0.375        0.9814809999999999        0.331534        0        
C3        C        0.4375        0.9814809999999999        0.331534        0        
C3        C        0.5        0.9814809999999999        0.331534        0        
C3        C        0.5625        0.9814809999999999        0.331534        0        
C3        C        0.625        0.9814809999999999        0.331534        0        
C3        C        0.6875        0.9814809999999999        0.331534        0        
C3        C        0.75        0.9814809999999999        0.331534        0        
C3        C        0.8125        0.9814809999999999        0.331534        0        
C3        C        0.875        0.9814809999999999        0.331534        0        
C3        C        0.9375        0.9814809999999999        0.331534        0        
C4        C        0.03125        0.925925        0.331534        0        
C4        C        0.09375        0.925925        0.331534        0        
C4        C        0.15625        0.925925        0.331534        0        
C4        C        0.21875        0.925925        0.331534        0        
C4        C        0.28125        0.925925        0.331534        0        
C4        C        0.34375        0.925925        0.331534        0        
C4        C        0.40625        0.925925        0.331534        0        
C4        C        0.46875        0.925925        0.331534        0        
C4        C        0.53125        0.925925        0.331534        0        
C4        C        0.59375        0.925925        0.331534        0        
C4        C        0.65625        0.925925        0.331534        0        
C4        C        0.71875        0.925925        0.331534        0        
C4        C        0.78125        0.925925        0.331534        0        
C4        C        0.84375        0.925925        0.331534        0        
C4        C        0.9062500000000001        0.925925        0.331534        0        
C4        C        0.9687500000000001        0.925925        0.331534        0        
C_FG        C        0.0        0.018519        0.403888        0.2        
C2        C        0.03125        0.074075        0.403888        0        
C3        C        0.0        0.092592        0.403888        0        
C4        C        0.03125        0.037037        0.403888        0        
C_FG        C        0.0        0.12963        0.403888        0.2        
C2        C        0.03125        0.185185        0.403888        0        
C3        C        0.0        0.203703        0.403888        0        
C4        C        0.03125        0.148148        0.403888        0        
C_FG        C        0.0        0.24074099999999998        0.403888        0.2        
C2        C        0.03125        0.296297        0.403888        0        
C3        C        0.0        0.314815        0.403888        0        
C4        C        0.03125        0.259259        0.403888        0        
C_FG        C        0.0        0.351852        0.403888        0.2        
C2        C        0.03125        0.407408        0.403888        0        
C3        C        0.0        0.42592500000000005        0.403888        0        
C4        C        0.03125        0.37037        0.403888        0        
C_FG        C        0.0        0.46296300000000007        0.403888        0.2        
C2        C        0.03125        0.518519        0.403888        0        
C3        C        0.0        0.537037        0.403888        0        
C4        C        0.03125        0.481481        0.403888        0        
C_FG        C        0.0        0.574075        0.403888        0.2        
C2        C        0.03125        0.62963        0.403888        0        
C3        C        0.0        0.648148        0.403888        0        
C4        C        0.03125        0.592592        0.403888        0        
C1        C        0.0625        0.018519        0.403888        0        
C2        C        0.09375        0.074075        0.403888        0        
C3        C        0.0625        0.092592        0.403888        0        
C4        C        0.09375        0.037037        0.403888        0        
C1        C        0.0625        0.12963        0.403888        0        
C2        C        0.09375        0.185185        0.403888        0        
C3        C        0.0625        0.203703        0.403888        0        
C4        C        0.09375        0.148148        0.403888        0        
C1        C        0.0625        0.24074099999999998        0.403888        0        
C2        C        0.09375        0.296297        0.403888        0        
C3        C        0.0625        0.314815        0.403888        0        
C4        C        0.09375        0.259259        0.403888        0        
C1        C        0.0625        0.351852        0.403888        0        
C2        C        0.09375        0.407408        0.403888        0        
C3        C        0.0625        0.42592500000000005        0.403888        0        
C4        C        0.09375        0.37037        0.403888        0        
C1        C        0.0625        0.46296300000000007        0.403888        0        
C2        C        0.09375        0.518519        0.403888        0        
C3        C        0.0625        0.537037        0.403888        0        
C4        C        0.09375        0.481481        0.403888        0        
C1        C        0.0625        0.574075        0.403888        0        
C2        C        0.09375        0.62963        0.403888        0        
C3        C        0.0625        0.648148        0.403888        0        
C4        C        0.09375        0.592592        0.403888        0        
C_FG        C        0.125        0.018519        0.403888        0.2        
C2        C        0.15625        0.074075        0.403888        0        
C3        C        0.125        0.092592        0.403888        0        
C4        C        0.15625        0.037037        0.403888        0        
C_FG        C        0.125        0.12963        0.403888        0.2        
C2        C        0.15625        0.185185        0.403888        0        
C3        C        0.125        0.203703        0.403888        0        
C4        C        0.15625        0.148148        0.403888        0        
C_FG        C        0.125        0.24074099999999998        0.403888        0.2        
C2        C        0.15625        0.296297        0.403888        0        
C3        C        0.125        0.314815        0.403888        0        
C4        C        0.15625        0.259259        0.403888        0        
C_FG        C        0.125        0.351852        0.403888        0.2        
C2        C        0.15625        0.407408        0.403888        0        
C3        C        0.125        0.42592500000000005        0.403888        0        
C4        C        0.15625        0.37037        0.403888        0        
C_FG        C        0.125        0.46296300000000007        0.403888        0.2        
C2        C        0.15625        0.518519        0.403888        0        
C3        C        0.125        0.537037        0.403888        0        
C4        C        0.15625        0.481481        0.403888        0        
C_FG        C        0.125        0.574075        0.403888        0.2        
C2        C        0.15625        0.62963        0.403888        0        
C3        C        0.125        0.648148        0.403888        0        
C4        C        0.15625        0.592592        0.403888        0        
C1        C        0.1875        0.018519        0.403888        0        
C2        C        0.21875        0.074075        0.403888        0        
C3        C        0.1875        0.092592        0.403888        0        
C4        C        0.21875        0.037037        0.403888        0        
C1        C        0.1875        0.12963        0.403888        0        
C2        C        0.21875        0.185185        0.403888        0        
C3        C        0.1875        0.203703        0.403888        0        
C4        C        0.21875        0.148148        0.403888        0        
C1        C        0.1875        0.24074099999999998        0.403888        0        
C2        C        0.21875        0.296297        0.403888        0        
C3        C        0.1875        0.314815        0.403888        0        
C4        C        0.21875        0.259259        0.403888        0        
C1        C        0.1875        0.351852        0.403888        0        
C2        C        0.21875        0.407408        0.403888        0        
C3        C        0.1875        0.42592500000000005        0.403888        0        
C4        C        0.21875        0.37037        0.403888        0        
C1        C        0.1875        0.46296300000000007        0.403888        0        
C2        C        0.21875        0.518519        0.403888        0        
C3        C        0.1875        0.537037        0.403888        0        
C4        C        0.21875        0.481481        0.403888        0        
C1        C        0.1875        0.574075        0.403888        0        
C2        C        0.21875        0.62963        0.403888        0        
C3        C        0.1875        0.648148        0.403888        0        
C4        C        0.21875        0.592592        0.403888        0        
C_FG        C        0.25        0.018519        0.403888        0.2        
C2        C        0.28125        0.074075        0.403888        0        
C3        C        0.25        0.092592        0.403888        0        
C4        C        0.28125        0.037037        0.403888        0        
C_FG        C        0.25        0.12963        0.403888        0.2        
C2        C        0.28125        0.185185        0.403888        0        
C3        C        0.25        0.203703        0.403888        0        
C4        C        0.28125        0.148148        0.403888        0        
C_FG        C        0.25        0.24074099999999998        0.403888        0.2        
C2        C        0.28125        0.296297        0.403888        0        
C3        C        0.25        0.314815        0.403888        0        
C4        C        0.28125        0.259259        0.403888        0        
C_FG        C        0.25        0.351852        0.403888        0.2        
C2        C        0.28125        0.407408        0.403888        0        
C3        C        0.25        0.42592500000000005        0.403888        0        
C4        C        0.28125        0.37037        0.403888        0        
C_FG        C        0.25        0.46296300000000007        0.403888        0.2        
C2        C        0.28125        0.518519        0.403888        0        
C3        C        0.25        0.537037        0.403888        0        
C4        C        0.28125        0.481481        0.403888        0        
C_FG        C        0.25        0.574075        0.403888        0.2        
C2        C        0.28125        0.62963        0.403888        0        
C3        C        0.25        0.648148        0.403888        0        
C4        C        0.28125        0.592592        0.403888        0        
C1        C        0.3125        0.018519        0.403888        0        
C2        C        0.34375        0.074075        0.403888        0        
C3        C        0.3125        0.092592        0.403888        0        
C4        C        0.34375        0.037037        0.403888        0        
C1        C        0.3125        0.12963        0.403888        0        
C2        C        0.34375        0.185185        0.403888        0        
C3        C        0.3125        0.203703        0.403888        0        
C4        C        0.34375        0.148148        0.403888        0        
C1        C        0.3125        0.24074099999999998        0.403888        0        
C2        C        0.34375        0.296297        0.403888        0        
C3        C        0.3125        0.314815        0.403888        0        
C4        C        0.34375        0.259259        0.403888        0        
C1        C        0.3125        0.351852        0.403888        0        
C2        C        0.34375        0.407408        0.403888        0        
C3        C        0.3125        0.42592500000000005        0.403888        0        
C4        C        0.34375        0.37037        0.403888        0        
C1        C        0.3125        0.46296300000000007        0.403888        0        
C2        C        0.34375        0.518519        0.403888        0        
C3        C        0.3125        0.537037        0.403888        0        
C4        C        0.34375        0.481481        0.403888        0        
C1        C        0.3125        0.574075        0.403888        0        
C2        C        0.34375        0.62963        0.403888        0        
C3        C        0.3125        0.648148        0.403888        0        
C4        C        0.34375        0.592592        0.403888        0        
C_FG        C        0.375        0.018519        0.403888        0.2        
C2        C        0.40625        0.074075        0.403888        0        
C3        C        0.375        0.092592        0.403888        0        
C4        C        0.40625        0.037037        0.403888        0        
C_FG        C        0.375        0.12963        0.403888        0.2        
C2        C        0.40625        0.185185        0.403888        0        
C3        C        0.375        0.203703        0.403888        0        
C4        C        0.40625        0.148148        0.403888        0        
C_FG        C        0.375        0.24074099999999998        0.403888        0.2        
C2        C        0.40625        0.296297        0.403888        0        
C3        C        0.375        0.314815        0.403888        0        
C4        C        0.40625        0.259259        0.403888        0        
C_FG        C        0.375        0.351852        0.403888        0.2        
C2        C        0.40625        0.407408        0.403888        0        
C3        C        0.375        0.42592500000000005        0.403888        0        
C4        C        0.40625        0.37037        0.403888        0        
C_FG        C        0.375        0.46296300000000007        0.403888        0.2        
C2        C        0.40625        0.518519        0.403888        0        
C3        C        0.375        0.537037        0.403888        0        
C4        C        0.40625        0.481481        0.403888        0        
C_FG        C        0.375        0.574075        0.403888        0.2        
C2        C        0.40625        0.62963        0.403888        0        
C3        C        0.375        0.648148        0.403888        0        
C4        C        0.40625        0.592592        0.403888        0        
C1        C        0.4375        0.018519        0.403888        0        
C2        C        0.46875        0.074075        0.403888        0        
C3        C        0.4375        0.092592        0.403888        0        
C4        C        0.46875        0.037037        0.403888        0        
C1        C        0.4375        0.12963        0.403888        0        
C2        C        0.46875        0.185185        0.403888        0        
C3        C        0.4375        0.203703        0.403888        0        
C4        C        0.46875        0.148148        0.403888        0        
C1        C        0.4375        0.24074099999999998        0.403888        0        
C2        C        0.46875        0.296297        0.403888        0        
C3        C        0.4375        0.314815        0.403888        0        
C4        C        0.46875        0.259259        0.403888        0        
C1        C        0.4375        0.351852        0.403888        0        
C2        C        0.46875        0.407408        0.403888        0        
C3        C        0.4375        0.42592500000000005        0.403888        0        
C4        C        0.46875        0.37037        0.403888        0        
C1        C        0.4375        0.46296300000000007        0.403888        0        
C2        C        0.46875        0.518519        0.403888        0        
C3        C        0.4375        0.537037        0.403888        0        
C4        C        0.46875        0.481481        0.403888        0        
C1        C        0.4375        0.574075        0.403888        0        
C2        C        0.46875        0.62963        0.403888        0        
C3        C        0.4375        0.648148        0.403888        0        
C4        C        0.46875        0.592592        0.403888        0        
C_FG        C        0.5        0.018519        0.403888        0.2        
C2        C        0.53125        0.074075        0.403888        0        
C3        C        0.5        0.092592        0.403888        0        
C4        C        0.53125        0.037037        0.403888        0        
C_FG        C        0.5        0.12963        0.403888        0.2        
C2        C        0.53125        0.185185        0.403888        0        
C3        C        0.5        0.203703        0.403888        0        
C4        C        0.53125        0.148148        0.403888        0        
C_FG        C        0.5        0.24074099999999998        0.403888        0.2        
C2        C        0.53125        0.296297        0.403888        0        
C3        C        0.5        0.314815        0.403888        0        
C4        C        0.53125        0.259259        0.403888        0        
C_FG        C        0.5        0.351852        0.403888        0.2        
C2        C        0.53125        0.407408        0.403888        0        
C3        C        0.5        0.42592500000000005        0.403888        0        
C4        C        0.53125        0.37037        0.403888        0        
C_FG        C        0.5        0.46296300000000007        0.403888        0.2        
C2        C        0.53125        0.518519        0.403888        0        
C3        C        0.5        0.537037        0.403888        0        
C4        C        0.53125        0.481481        0.403888        0        
C_FG        C        0.5        0.574075        0.403888        0.2        
C2        C        0.53125        0.62963        0.403888        0        
C3        C        0.5        0.648148        0.403888        0        
C4        C        0.53125        0.592592        0.403888        0        
C1        C        0.5625        0.018519        0.403888        0        
C2        C        0.59375        0.074075        0.403888        0        
C3        C        0.5625        0.092592        0.403888        0        
C4        C        0.59375        0.037037        0.403888        0        
C1        C        0.5625        0.12963        0.403888        0        
C2        C        0.59375        0.185185        0.403888        0        
C3        C        0.5625        0.203703        0.403888        0        
C4        C        0.59375        0.148148        0.403888        0        
C1        C        0.5625        0.24074099999999998        0.403888        0        
C2        C        0.59375        0.296297        0.403888        0        
C3        C        0.5625        0.314815        0.403888        0        
C4        C        0.59375        0.259259        0.403888        0        
C1        C        0.5625        0.351852        0.403888        0        
C2        C        0.59375        0.407408        0.403888        0        
C3        C        0.5625        0.42592500000000005        0.403888        0        
C4        C        0.59375        0.37037        0.403888        0        
C1        C        0.5625        0.46296300000000007        0.403888        0        
C2        C        0.59375        0.518519        0.403888        0        
C3        C        0.5625        0.537037        0.403888        0        
C4        C        0.59375        0.481481        0.403888        0        
C1        C        0.5625        0.574075        0.403888        0        
C2        C        0.59375        0.62963        0.403888        0        
C3        C        0.5625        0.648148        0.403888        0        
C4        C        0.59375        0.592592        0.403888        0        
C_FG        C        0.625        0.018519        0.403888        0.2        
C2        C        0.65625        0.074075        0.403888        0        
C3        C        0.625        0.092592        0.403888        0        
C4        C        0.65625        0.037037        0.403888        0        
C_FG        C        0.625        0.12963        0.403888        0.2        
C2        C        0.65625        0.185185        0.403888        0        
C3        C        0.625        0.203703        0.403888        0        
C4        C        0.65625        0.148148        0.403888        0        
C_FG        C        0.625        0.24074099999999998        0.403888        0.2        
C2        C        0.65625        0.296297        0.403888        0        
C3        C        0.625        0.314815        0.403888        0        
C4        C        0.65625        0.259259        0.403888        0        
C_FG        C        0.625        0.351852        0.403888        0.2        
C2        C        0.65625        0.407408        0.403888        0        
C3        C        0.625        0.42592500000000005        0.403888        0        
C4        C        0.65625        0.37037        0.403888        0        
C_FG        C        0.625        0.46296300000000007        0.403888        0.2        
C2        C        0.65625        0.518519        0.403888        0        
C3        C        0.625        0.537037        0.403888        0        
C4        C        0.65625        0.481481        0.403888        0        
C_FG        C        0.625        0.574075        0.403888        0.2        
C2        C        0.65625        0.62963        0.403888        0        
C3        C        0.625        0.648148        0.403888        0        
C4        C        0.65625        0.592592        0.403888        0        
C1        C        0.6875        0.018519        0.403888        0        
C2        C        0.71875        0.074075        0.403888        0        
C3        C        0.6875        0.092592        0.403888        0        
C4        C        0.71875        0.037037        0.403888        0        
C1        C        0.6875        0.12963        0.403888        0        
C2        C        0.71875        0.185185        0.403888        0        
C3        C        0.6875        0.203703        0.403888        0        
C4        C        0.71875        0.148148        0.403888        0        
C1        C        0.6875        0.24074099999999998        0.403888        0        
C2        C        0.71875        0.296297        0.403888        0        
C3        C        0.6875        0.314815        0.403888        0        
C4        C        0.71875        0.259259        0.403888        0        
C1        C        0.6875        0.351852        0.403888        0        
C2        C        0.71875        0.407408        0.403888        0        
C3        C        0.6875        0.42592500000000005        0.403888        0        
C4        C        0.71875        0.37037        0.403888        0        
C1        C        0.6875        0.46296300000000007        0.403888        0        
C2        C        0.71875        0.518519        0.403888        0        
C3        C        0.6875        0.537037        0.403888        0        
C4        C        0.71875        0.481481        0.403888        0        
C1        C        0.6875        0.574075        0.403888        0        
C2        C        0.71875        0.62963        0.403888        0        
C3        C        0.6875        0.648148        0.403888        0        
C4        C        0.71875        0.592592        0.403888        0        
C_FG        C        0.75        0.018519        0.403888        0.2        
C2        C        0.78125        0.074075        0.403888        0        
C3        C        0.75        0.092592        0.403888        0        
C4        C        0.78125        0.037037        0.403888        0        
C_FG        C        0.75        0.12963        0.403888        0.2        
C2        C        0.78125        0.185185        0.403888        0        
C3        C        0.75        0.203703        0.403888        0        
C4        C        0.78125        0.148148        0.403888        0        
C_FG        C        0.75        0.24074099999999998        0.403888        0.2        
C2        C        0.78125        0.296297        0.403888        0        
C3        C        0.75        0.314815        0.403888        0        
C4        C        0.78125        0.259259        0.403888        0        
C_FG        C        0.75        0.351852        0.403888        0.2        
C2        C        0.78125        0.407408        0.403888        0        
C3        C        0.75        0.42592500000000005        0.403888        0        
C4        C        0.78125        0.37037        0.403888        0        
C_FG        C        0.75        0.46296300000000007        0.403888        0.2        
C2        C        0.78125        0.518519        0.403888        0        
C3        C        0.75        0.537037        0.403888        0        
C4        C        0.78125        0.481481        0.403888        0        
C_FG        C        0.75        0.574075        0.403888        0.2        
C2        C        0.78125        0.62963        0.403888        0        
C3        C        0.75        0.648148        0.403888        0        
C4        C        0.78125        0.592592        0.403888        0        
C1        C        0.8125        0.018519        0.403888        0        
C2        C        0.84375        0.074075        0.403888        0        
C3        C        0.8125        0.092592        0.403888        0        
C4        C        0.84375        0.037037        0.403888        0        
C1        C        0.8125        0.12963        0.403888        0        
C2        C        0.84375        0.185185        0.403888        0        
C3        C        0.8125        0.203703        0.403888        0        
C4        C        0.84375        0.148148        0.403888        0        
C1        C        0.8125        0.24074099999999998        0.403888        0        
C2        C        0.84375        0.296297        0.403888        0        
C3        C        0.8125        0.314815        0.403888        0        
C4        C        0.84375        0.259259        0.403888        0        
C1        C        0.8125        0.351852        0.403888        0        
C2        C        0.84375        0.407408        0.403888        0        
C3        C        0.8125        0.42592500000000005        0.403888        0        
C4        C        0.84375        0.37037        0.403888        0        
C1        C        0.8125        0.46296300000000007        0.403888        0        
C2        C        0.84375        0.518519        0.403888        0        
C3        C        0.8125        0.537037        0.403888        0        
C4        C        0.84375        0.481481        0.403888        0        
C1        C        0.8125        0.574075        0.403888        0        
C2        C        0.84375        0.62963        0.403888        0        
C3        C        0.8125        0.648148        0.403888        0        
C4        C        0.84375        0.592592        0.403888        0        
C_FG        C        0.875        0.018519        0.403888        0.2        
C2        C        0.9062500000000001        0.074075        0.403888        0        
C3        C        0.875        0.092592        0.403888        0        
C4        C        0.9062500000000001        0.037037        0.403888        0        
C_FG        C        0.875        0.12963        0.403888        0.2        
C2        C        0.9062500000000001        0.185185        0.403888        0        
C3        C        0.875        0.203703        0.403888        0        
C4        C        0.9062500000000001        0.148148        0.403888        0        
C_FG        C        0.875        0.24074099999999998        0.403888        0.2        
C2        C        0.9062500000000001        0.296297        0.403888        0        
C3        C        0.875        0.314815        0.403888        0        
C4        C        0.9062500000000001        0.259259        0.403888        0        
C_FG        C        0.875        0.351852        0.403888        0.2        
C2        C        0.9062500000000001        0.407408        0.403888        0        
C3        C        0.875        0.42592500000000005        0.403888        0        
C4        C        0.9062500000000001        0.37037        0.403888        0        
C_FG        C        0.875        0.46296300000000007        0.403888        0.2        
C2        C        0.9062500000000001        0.518519        0.403888        0        
C3        C        0.875        0.537037        0.403888        0        
C4        C        0.9062500000000001        0.481481        0.403888        0        
C_FG        C        0.875        0.574075        0.403888        0.2        
C2        C        0.9062500000000001        0.62963        0.403888        0        
C3        C        0.875        0.648148        0.403888        0        
C4        C        0.9062500000000001        0.592592        0.403888        0        
C1        C        0.9375        0.018519        0.403888        0        
C2        C        0.9687500000000001        0.074075        0.403888        0        
C3        C        0.9375        0.092592        0.403888        0        
C4        C        0.9687500000000001        0.037037        0.403888        0        
C1        C        0.9375        0.12963        0.403888        0        
C2        C        0.9687500000000001        0.185185        0.403888        0        
C3        C        0.9375        0.203703        0.403888        0        
C4        C        0.9687500000000001        0.148148        0.403888        0        
C1        C        0.9375        0.24074099999999998        0.403888        0        
C2        C        0.9687500000000001        0.296297        0.403888        0        
C3        C        0.9375        0.314815        0.403888        0        
C4        C        0.9687500000000001        0.259259        0.403888        0        
C1        C        0.9375        0.351852        0.403888        0        
C2        C        0.9687500000000001        0.407408        0.403888        0        
C3        C        0.9375        0.42592500000000005        0.403888        0        
C4        C        0.9687500000000001        0.37037        0.403888        0        
C1        C        0.9375        0.46296300000000007        0.403888        0        
C2        C        0.9687500000000001        0.518519        0.403888        0        
C3        C        0.9375        0.537037        0.403888        0        
C4        C        0.9687500000000001        0.481481        0.403888        0        
C1        C        0.9375        0.574075        0.403888        0        
C2        C        0.9687500000000001        0.62963        0.403888        0        
C3        C        0.9375        0.648148        0.403888        0        
C4        C        0.9687500000000001        0.592592        0.403888        0        
C_FG        C        0.0        0.685186        0.403888        0.2        
C1        C        0.0625        0.685186        0.403888        0        
C_FG        C        0.125        0.685186        0.403888        0.2        
C1        C        0.1875        0.685186        0.403888        0        
C_FG        C        0.25        0.685186        0.403888        0.2        
C1        C        0.3125        0.685186        0.403888        0        
C_FG        C        0.375        0.685186        0.403888        0.2        
C1        C        0.4375        0.685186        0.403888        0        
C_FG        C        0.5        0.685186        0.403888        0.2        
C1        C        0.5625        0.685186        0.403888        0        
C_FG        C        0.625        0.685186        0.403888        0.2        
C1        C        0.6875        0.685186        0.403888        0        
C_FG        C        0.75        0.685186        0.403888        0.2        
C1        C        0.8125        0.685186        0.403888        0        
C_FG        C        0.875        0.685186        0.403888        0.2        
C1        C        0.9375        0.685186        0.403888        0        
C2        C        0.03125        0.740741        0.403888        0        
C2        C        0.09375        0.740741        0.403888        0        
C2        C        0.15625        0.740741        0.403888        0        
C2        C        0.21875        0.740741        0.403888        0        
C2        C        0.28125        0.740741        0.403888        0        
C2        C        0.34375        0.740741        0.403888        0        
C2        C        0.40625        0.740741        0.403888        0        
C2        C        0.46875        0.740741        0.403888        0        
C2        C        0.53125        0.740741        0.403888        0        
C2        C        0.59375        0.740741        0.403888        0        
C2        C        0.65625        0.740741        0.403888        0        
C2        C        0.71875        0.740741        0.403888        0        
C2        C        0.78125        0.740741        0.403888        0        
C2        C        0.84375        0.740741        0.403888        0        
C2        C        0.9062500000000001        0.740741        0.403888        0        
C2        C        0.9687500000000001        0.740741        0.403888        0        
C3        C        0.0        0.759259        0.403888        0        
C3        C        0.0625        0.759259        0.403888        0        
C3        C        0.125        0.759259        0.403888        0        
C3        C        0.1875        0.759259        0.403888        0        
C3        C        0.25        0.759259        0.403888        0        
C3        C        0.3125        0.759259        0.403888        0        
C3        C        0.375        0.759259        0.403888        0        
C3        C        0.4375        0.759259        0.403888        0        
C3        C        0.5        0.759259        0.403888        0        
C3        C        0.5625        0.759259        0.403888        0        
C3        C        0.625        0.759259        0.403888        0        
C3        C        0.6875        0.759259        0.403888        0        
C3        C        0.75        0.759259        0.403888        0        
C3        C        0.8125        0.759259        0.403888        0        
C3        C        0.875        0.759259        0.403888        0        
C3        C        0.9375        0.759259        0.403888        0        
C4        C        0.03125        0.703703        0.403888        0        
C4        C        0.09375        0.703703        0.403888        0        
C4        C        0.15625        0.703703        0.403888        0        
C4        C        0.21875        0.703703        0.403888        0        
C4        C        0.28125        0.703703        0.403888        0        
C4        C        0.34375        0.703703        0.403888        0        
C4        C        0.40625        0.703703        0.403888        0        
C4        C        0.46875        0.703703        0.403888        0        
C4        C        0.53125        0.703703        0.403888        0        
C4        C        0.59375        0.703703        0.403888        0        
C4        C        0.65625        0.703703        0.403888        0        
C4        C        0.71875        0.703703        0.403888        0        
C4        C        0.78125        0.703703        0.403888        0        
C4        C        0.84375        0.703703        0.403888        0        
C4        C        0.9062500000000001        0.703703        0.403888        0        
C4        C        0.9687500000000001        0.703703        0.403888        0        
C_FG        C        0.0        0.796297        0.403888        0.2        
C1        C        0.0625        0.796297        0.403888        0        
C_FG        C        0.125        0.796297        0.403888        0.2        
C1        C        0.1875        0.796297        0.403888        0        
C_FG        C        0.25        0.796297        0.403888        0.2        
C1        C        0.3125        0.796297        0.403888        0        
C_FG        C        0.375        0.796297        0.403888        0.2        
C1        C        0.4375        0.796297        0.403888        0        
C_FG        C        0.5        0.796297        0.403888        0.2        
C1        C        0.5625        0.796297        0.403888        0        
C_FG        C        0.625        0.796297        0.403888        0.2        
C1        C        0.6875        0.796297        0.403888        0        
C_FG        C        0.75        0.796297        0.403888        0.2        
C1        C        0.8125        0.796297        0.403888        0        
C_FG        C        0.875        0.796297        0.403888        0.2        
C1        C        0.9375        0.796297        0.403888        0        
C2        C        0.03125        0.851852        0.403888        0        
C2        C        0.09375        0.851852        0.403888        0        
C2        C        0.15625        0.851852        0.403888        0        
C2        C        0.21875        0.851852        0.403888        0        
C2        C        0.28125        0.851852        0.403888        0        
C2        C        0.34375        0.851852        0.403888        0        
C2        C        0.40625        0.851852        0.403888        0        
C2        C        0.46875        0.851852        0.403888        0        
C2        C        0.53125        0.851852        0.403888        0        
C2        C        0.59375        0.851852        0.403888        0        
C2        C        0.65625        0.851852        0.403888        0        
C2        C        0.71875        0.851852        0.403888        0        
C2        C        0.78125        0.851852        0.403888        0        
C2        C        0.84375        0.851852        0.403888        0        
C2        C        0.9062500000000001        0.851852        0.403888        0        
C2        C        0.9687500000000001        0.851852        0.403888        0        
C3        C        0.0        0.87037        0.403888        0        
C3        C        0.0625        0.87037        0.403888        0        
C3        C        0.125        0.87037        0.403888        0        
C3        C        0.1875        0.87037        0.403888        0        
C3        C        0.25        0.87037        0.403888        0        
C3        C        0.3125        0.87037        0.403888        0        
C3        C        0.375        0.87037        0.403888        0        
C3        C        0.4375        0.87037        0.403888        0        
C3        C        0.5        0.87037        0.403888        0        
C3        C        0.5625        0.87037        0.403888        0        
C3        C        0.625        0.87037        0.403888        0        
C3        C        0.6875        0.87037        0.403888        0        
C3        C        0.75        0.87037        0.403888        0        
C3        C        0.8125        0.87037        0.403888        0        
C3        C        0.875        0.87037        0.403888        0        
C3        C        0.9375        0.87037        0.403888        0        
C4        C        0.03125        0.814814        0.403888        0        
C4        C        0.09375        0.814814        0.403888        0        
C4        C        0.15625        0.814814        0.403888        0        
C4        C        0.21875        0.814814        0.403888        0        
C4        C        0.28125        0.814814        0.403888        0        
C4        C        0.34375        0.814814        0.403888        0        
C4        C        0.40625        0.814814        0.403888        0        
C4        C        0.46875        0.814814        0.403888        0        
C4        C        0.53125        0.814814        0.403888        0        
C4        C        0.59375        0.814814        0.403888        0        
C4        C        0.65625        0.814814        0.403888        0        
C4        C        0.71875        0.814814        0.403888        0        
C4        C        0.78125        0.814814        0.403888        0        
C4        C        0.84375        0.814814        0.403888        0        
C4        C        0.9062500000000001        0.814814        0.403888        0        
C4        C        0.9687500000000001        0.814814        0.403888        0        
C_FG        C        0.0        0.907408        0.403888        0.2        
C1        C        0.0625        0.907408        0.403888        0        
C_FG        C        0.125        0.907408        0.403888        0.2        
C1        C        0.1875        0.907408        0.403888        0        
C_FG        C        0.25        0.907408        0.403888        0.2        
C1        C        0.3125        0.907408        0.403888        0        
C_FG        C        0.375        0.907408        0.403888        0.2        
C1        C        0.4375        0.907408        0.403888        0        
C_FG        C        0.5        0.907408        0.403888        0.2        
C1        C        0.5625        0.907408        0.403888        0        
C_FG        C        0.625        0.907408        0.403888        0.2        
C1        C        0.6875        0.907408        0.403888        0        
C_FG        C        0.75        0.907408        0.403888        0.2        
C1        C        0.8125        0.907408        0.403888        0        
C_FG        C        0.875        0.907408        0.403888        0.2        
C1        C        0.9375        0.907408        0.403888        0        
C2        C        0.03125        0.962963        0.403888        0        
C2        C        0.09375        0.962963        0.403888        0        
C2        C        0.15625        0.962963        0.403888        0        
C2        C        0.21875        0.962963        0.403888        0        
C2        C        0.28125        0.962963        0.403888        0        
C2        C        0.34375        0.962963        0.403888        0        
C2        C        0.40625        0.962963        0.403888        0        
C2        C        0.46875        0.962963        0.403888        0        
C2        C        0.53125        0.962963        0.403888        0        
C2        C        0.59375        0.962963        0.403888        0        
C2        C        0.65625        0.962963        0.403888        0        
C2        C        0.71875        0.962963        0.403888        0        
C2        C        0.78125        0.962963        0.403888        0        
C2        C        0.84375        0.962963        0.403888        0        
C2        C        0.9062500000000001        0.962963        0.403888        0        
C2        C        0.9687500000000001        0.962963        0.403888        0        
C3        C        0.0        0.9814809999999999        0.403888        0        
C3        C        0.0625        0.9814809999999999        0.403888        0        
C3        C        0.125        0.9814809999999999        0.403888        0        
C3        C        0.1875        0.9814809999999999        0.403888        0        
C3        C        0.25        0.9814809999999999        0.403888        0        
C3        C        0.3125        0.9814809999999999        0.403888        0        
C3        C        0.375        0.9814809999999999        0.403888        0        
C3        C        0.4375        0.9814809999999999        0.403888        0        
C3        C        0.5        0.9814809999999999        0.403888        0        
C3        C        0.5625        0.9814809999999999        0.403888        0        
C3        C        0.625        0.9814809999999999        0.403888        0        
C3        C        0.6875        0.9814809999999999        0.403888        0        
C3        C        0.75        0.9814809999999999        0.403888        0        
C3        C        0.8125        0.9814809999999999        0.403888        0        
C3        C        0.875        0.9814809999999999        0.403888        0        
C3        C        0.9375        0.9814809999999999        0.403888        0        
C4        C        0.03125        0.925925        0.403888        0        
C4        C        0.09375        0.925925        0.403888        0        
C4        C        0.15625        0.925925        0.403888        0        
C4        C        0.21875        0.925925        0.403888        0        
C4        C        0.28125        0.925925        0.403888        0        
C4        C        0.34375        0.925925        0.403888        0        
C4        C        0.40625        0.925925        0.403888        0        
C4        C        0.46875        0.925925        0.403888        0        
C4        C        0.53125        0.925925        0.403888        0        
C4        C        0.59375        0.925925        0.403888        0        
C4        C        0.65625        0.925925        0.403888        0        
C4        C        0.71875        0.925925        0.403888        0        
C4        C        0.78125        0.925925        0.403888        0        
C4        C        0.84375        0.925925        0.403888        0        
C4        C        0.9062500000000001        0.925925        0.403888        0        
C4        C        0.9687500000000001        0.925925        0.403888        0        
C_FG        C        0.0        0.018519        0.596113        0.2        
C2        C        0.03125        0.074075        0.596113        0        
C3        C        0.0        0.092592        0.596113        0        
C4        C        0.03125        0.037037        0.596113        0        
C_FG        C        0.0        0.12963        0.596113        0.2        
C2        C        0.03125        0.185185        0.596113        0        
C3        C        0.0        0.203703        0.596113        0        
C4        C        0.03125        0.148148        0.596113        0        
C_FG        C        0.0        0.24074099999999998        0.596113        0.2        
C2        C        0.03125        0.296297        0.596113        0        
C3        C        0.0        0.314815        0.596113        0        
C4        C        0.03125        0.259259        0.596113        0        
C_FG        C        0.0        0.351852        0.596113        0.2        
C2        C        0.03125        0.407408        0.596113        0        
C3        C        0.0        0.42592500000000005        0.596113        0        
C4        C        0.03125        0.37037        0.596113        0        
C_FG        C        0.0        0.46296300000000007        0.596113        0.2        
C2        C        0.03125        0.518519        0.596113        0        
C3        C        0.0        0.537037        0.596113        0        
C4        C        0.03125        0.481481        0.596113        0        
C_FG        C        0.0        0.574075        0.596113        0.2        
C2        C        0.03125        0.62963        0.596113        0        
C3        C        0.0        0.648148        0.596113        0        
C4        C        0.03125        0.592592        0.596113        0        
C1        C        0.0625        0.018519        0.596113        0        
C2        C        0.09375        0.074075        0.596113        0        
C3        C        0.0625        0.092592        0.596113        0        
C4        C        0.09375        0.037037        0.596113        0        
C1        C        0.0625        0.12963        0.596113        0        
C2        C        0.09375        0.185185        0.596113        0        
C3        C        0.0625        0.203703        0.596113        0        
C4        C        0.09375        0.148148        0.596113        0        
C1        C        0.0625        0.24074099999999998        0.596113        0        
C2        C        0.09375        0.296297        0.596113        0        
C3        C        0.0625        0.314815        0.596113        0        
C4        C        0.09375        0.259259        0.596113        0        
C1        C        0.0625        0.351852        0.596113        0        
C2        C        0.09375        0.407408        0.596113        0        
C3        C        0.0625        0.42592500000000005        0.596113        0        
C4        C        0.09375        0.37037        0.596113        0        
C1        C        0.0625        0.46296300000000007        0.596113        0        
C2        C        0.09375        0.518519        0.596113        0        
C3        C        0.0625        0.537037        0.596113        0        
C4        C        0.09375        0.481481        0.596113        0        
C1        C        0.0625        0.574075        0.596113        0        
C2        C        0.09375        0.62963        0.596113        0        
C3        C        0.0625        0.648148        0.596113        0        
C4        C        0.09375        0.592592        0.596113        0        
C_FG        C        0.125        0.018519        0.596113        0.2        
C2        C        0.15625        0.074075        0.596113        0        
C3        C        0.125        0.092592        0.596113        0        
C4        C        0.15625        0.037037        0.596113        0        
C_FG        C        0.125        0.12963        0.596113        0.2        
C2        C        0.15625        0.185185        0.596113        0        
C3        C        0.125        0.203703        0.596113        0        
C4        C        0.15625        0.148148        0.596113        0        
C_FG        C        0.125        0.24074099999999998        0.596113        0.2        
C2        C        0.15625        0.296297        0.596113        0        
C3        C        0.125        0.314815        0.596113        0        
C4        C        0.15625        0.259259        0.596113        0        
C_FG        C        0.125        0.351852        0.596113        0.2        
C2        C        0.15625        0.407408        0.596113        0        
C3        C        0.125        0.42592500000000005        0.596113        0        
C4        C        0.15625        0.37037        0.596113        0        
C_FG        C        0.125        0.46296300000000007        0.596113        0.2        
C2        C        0.15625        0.518519        0.596113        0        
C3        C        0.125        0.537037        0.596113        0        
C4        C        0.15625        0.481481        0.596113        0        
C_FG        C        0.125        0.574075        0.596113        0.2        
C2        C        0.15625        0.62963        0.596113        0        
C3        C        0.125        0.648148        0.596113        0        
C4        C        0.15625        0.592592        0.596113        0        
C1        C        0.1875        0.018519        0.596113        0        
C2        C        0.21875        0.074075        0.596113        0        
C3        C        0.1875        0.092592        0.596113        0        
C4        C        0.21875        0.037037        0.596113        0        
C1        C        0.1875        0.12963        0.596113        0        
C2        C        0.21875        0.185185        0.596113        0        
C3        C        0.1875        0.203703        0.596113        0        
C4        C        0.21875        0.148148        0.596113        0        
C1        C        0.1875        0.24074099999999998        0.596113        0        
C2        C        0.21875        0.296297        0.596113        0        
C3        C        0.1875        0.314815        0.596113        0        
C4        C        0.21875        0.259259        0.596113        0        
C1        C        0.1875        0.351852        0.596113        0        
C2        C        0.21875        0.407408        0.596113        0        
C3        C        0.1875        0.42592500000000005        0.596113        0        
C4        C        0.21875        0.37037        0.596113        0        
C1        C        0.1875        0.46296300000000007        0.596113        0        
C2        C        0.21875        0.518519        0.596113        0        
C3        C        0.1875        0.537037        0.596113        0        
C4        C        0.21875        0.481481        0.596113        0        
C1        C        0.1875        0.574075        0.596113        0        
C2        C        0.21875        0.62963        0.596113        0        
C3        C        0.1875        0.648148        0.596113        0        
C4        C        0.21875        0.592592        0.596113        0        
C_FG        C        0.25        0.018519        0.596113        0.2        
C2        C        0.28125        0.074075        0.596113        0        
C3        C        0.25        0.092592        0.596113        0        
C4        C        0.28125        0.037037        0.596113        0        
C_FG        C        0.25        0.12963        0.596113        0.2        
C2        C        0.28125        0.185185        0.596113        0        
C3        C        0.25        0.203703        0.596113        0        
C4        C        0.28125        0.148148        0.596113        0        
C_FG        C        0.25        0.24074099999999998        0.596113        0.2        
C2        C        0.28125        0.296297        0.596113        0        
C3        C        0.25        0.314815        0.596113        0        
C4        C        0.28125        0.259259        0.596113        0        
C_FG        C        0.25        0.351852        0.596113        0.2        
C2        C        0.28125        0.407408        0.596113        0        
C3        C        0.25        0.42592500000000005        0.596113        0        
C4        C        0.28125        0.37037        0.596113        0        
C_FG        C        0.25        0.46296300000000007        0.596113        0.2        
C2        C        0.28125        0.518519        0.596113        0        
C3        C        0.25        0.537037        0.596113        0        
C4        C        0.28125        0.481481        0.596113        0        
C_FG        C        0.25        0.574075        0.596113        0.2        
C2        C        0.28125        0.62963        0.596113        0        
C3        C        0.25        0.648148        0.596113        0        
C4        C        0.28125        0.592592        0.596113        0        
C1        C        0.3125        0.018519        0.596113        0        
C2        C        0.34375        0.074075        0.596113        0        
C3        C        0.3125        0.092592        0.596113        0        
C4        C        0.34375        0.037037        0.596113        0        
C1        C        0.3125        0.12963        0.596113        0        
C2        C        0.34375        0.185185        0.596113        0        
C3        C        0.3125        0.203703        0.596113        0        
C4        C        0.34375        0.148148        0.596113        0        
C1        C        0.3125        0.24074099999999998        0.596113        0        
C2        C        0.34375        0.296297        0.596113        0        
C3        C        0.3125        0.314815        0.596113        0        
C4        C        0.34375        0.259259        0.596113        0        
C1        C        0.3125        0.351852        0.596113        0        
C2        C        0.34375        0.407408        0.596113        0        
C3        C        0.3125        0.42592500000000005        0.596113        0        
C4        C        0.34375        0.37037        0.596113        0        
C1        C        0.3125        0.46296300000000007        0.596113        0        
C2        C        0.34375        0.518519        0.596113        0        
C3        C        0.3125        0.537037        0.596113        0        
C4        C        0.34375        0.481481        0.596113        0        
C1        C        0.3125        0.574075        0.596113        0        
C2        C        0.34375        0.62963        0.596113        0        
C3        C        0.3125        0.648148        0.596113        0        
C4        C        0.34375        0.592592        0.596113        0        
C_FG        C        0.375        0.018519        0.596113        0.2        
C2        C        0.40625        0.074075        0.596113        0        
C3        C        0.375        0.092592        0.596113        0        
C4        C        0.40625        0.037037        0.596113        0        
C_FG        C        0.375        0.12963        0.596113        0.2        
C2        C        0.40625        0.185185        0.596113        0        
C3        C        0.375        0.203703        0.596113        0        
C4        C        0.40625        0.148148        0.596113        0        
C_FG        C        0.375        0.24074099999999998        0.596113        0.2        
C2        C        0.40625        0.296297        0.596113        0        
C3        C        0.375        0.314815        0.596113        0        
C4        C        0.40625        0.259259        0.596113        0        
C_FG        C        0.375        0.351852        0.596113        0.2        
C2        C        0.40625        0.407408        0.596113        0        
C3        C        0.375        0.42592500000000005        0.596113        0        
C4        C        0.40625        0.37037        0.596113        0        
C_FG        C        0.375        0.46296300000000007        0.596113        0.2        
C2        C        0.40625        0.518519        0.596113        0        
C3        C        0.375        0.537037        0.596113        0        
C4        C        0.40625        0.481481        0.596113        0        
C_FG        C        0.375        0.574075        0.596113        0.2        
C2        C        0.40625        0.62963        0.596113        0        
C3        C        0.375        0.648148        0.596113        0        
C4        C        0.40625        0.592592        0.596113        0        
C1        C        0.4375        0.018519        0.596113        0        
C2        C        0.46875        0.074075        0.596113        0        
C3        C        0.4375        0.092592        0.596113        0        
C4        C        0.46875        0.037037        0.596113        0        
C1        C        0.4375        0.12963        0.596113        0        
C2        C        0.46875        0.185185        0.596113        0        
C3        C        0.4375        0.203703        0.596113        0        
C4        C        0.46875        0.148148        0.596113        0        
C1        C        0.4375        0.24074099999999998        0.596113        0        
C2        C        0.46875        0.296297        0.596113        0        
C3        C        0.4375        0.314815        0.596113        0        
C4        C        0.46875        0.259259        0.596113        0        
C1        C        0.4375        0.351852        0.596113        0        
C2        C        0.46875        0.407408        0.596113        0        
C3        C        0.4375        0.42592500000000005        0.596113        0        
C4        C        0.46875        0.37037        0.596113        0        
C1        C        0.4375        0.46296300000000007        0.596113        0        
C2        C        0.46875        0.518519        0.596113        0        
C3        C        0.4375        0.537037        0.596113        0        
C4        C        0.46875        0.481481        0.596113        0        
C1        C        0.4375        0.574075        0.596113        0        
C2        C        0.46875        0.62963        0.596113        0        
C3        C        0.4375        0.648148        0.596113        0        
C4        C        0.46875        0.592592        0.596113        0        
C_FG        C        0.5        0.018519        0.596113        0.2        
C2        C        0.53125        0.074075        0.596113        0        
C3        C        0.5        0.092592        0.596113        0        
C4        C        0.53125        0.037037        0.596113        0        
C_FG        C        0.5        0.12963        0.596113        0.2        
C2        C        0.53125        0.185185        0.596113        0        
C3        C        0.5        0.203703        0.596113        0        
C4        C        0.53125        0.148148        0.596113        0        
C_FG        C        0.5        0.24074099999999998        0.596113        0.2        
C2        C        0.53125        0.296297        0.596113        0        
C3        C        0.5        0.314815        0.596113        0        
C4        C        0.53125        0.259259        0.596113        0        
C_FG        C        0.5        0.351852        0.596113        0.2        
C2        C        0.53125        0.407408        0.596113        0        
C3        C        0.5        0.42592500000000005        0.596113        0        
C4        C        0.53125        0.37037        0.596113        0        
C_FG        C        0.5        0.46296300000000007        0.596113        0.2        
C2        C        0.53125        0.518519        0.596113        0        
C3        C        0.5        0.537037        0.596113        0        
C4        C        0.53125        0.481481        0.596113        0        
C_FG        C        0.5        0.574075        0.596113        0.2        
C2        C        0.53125        0.62963        0.596113        0        
C3        C        0.5        0.648148        0.596113        0        
C4        C        0.53125        0.592592        0.596113        0        
C1        C        0.5625        0.018519        0.596113        0        
C2        C        0.59375        0.074075        0.596113        0        
C3        C        0.5625        0.092592        0.596113        0        
C4        C        0.59375        0.037037        0.596113        0        
C1        C        0.5625        0.12963        0.596113        0        
C2        C        0.59375        0.185185        0.596113        0        
C3        C        0.5625        0.203703        0.596113        0        
C4        C        0.59375        0.148148        0.596113        0        
C1        C        0.5625        0.24074099999999998        0.596113        0        
C2        C        0.59375        0.296297        0.596113        0        
C3        C        0.5625        0.314815        0.596113        0        
C4        C        0.59375        0.259259        0.596113        0        
C1        C        0.5625        0.351852        0.596113        0        
C2        C        0.59375        0.407408        0.596113        0        
C3        C        0.5625        0.42592500000000005        0.596113        0        
C4        C        0.59375        0.37037        0.596113        0        
C1        C        0.5625        0.46296300000000007        0.596113        0        
C2        C        0.59375        0.518519        0.596113        0        
C3        C        0.5625        0.537037        0.596113        0        
C4        C        0.59375        0.481481        0.596113        0        
C1        C        0.5625        0.574075        0.596113        0        
C2        C        0.59375        0.62963        0.596113        0        
C3        C        0.5625        0.648148        0.596113        0        
C4        C        0.59375        0.592592        0.596113        0        
C_FG        C        0.625        0.018519        0.596113        0.2        
C2        C        0.65625        0.074075        0.596113        0        
C3        C        0.625        0.092592        0.596113        0        
C4        C        0.65625        0.037037        0.596113        0        
C_FG        C        0.625        0.12963        0.596113        0.2        
C2        C        0.65625        0.185185        0.596113        0        
C3        C        0.625        0.203703        0.596113        0        
C4        C        0.65625        0.148148        0.596113        0        
C_FG        C        0.625        0.24074099999999998        0.596113        0.2        
C2        C        0.65625        0.296297        0.596113        0        
C3        C        0.625        0.314815        0.596113        0        
C4        C        0.65625        0.259259        0.596113        0        
C_FG        C        0.625        0.351852        0.596113        0.2        
C2        C        0.65625        0.407408        0.596113        0        
C3        C        0.625        0.42592500000000005        0.596113        0        
C4        C        0.65625        0.37037        0.596113        0        
C_FG        C        0.625        0.46296300000000007        0.596113        0.2        
C2        C        0.65625        0.518519        0.596113        0        
C3        C        0.625        0.537037        0.596113        0        
C4        C        0.65625        0.481481        0.596113        0        
C_FG        C        0.625        0.574075        0.596113        0.2        
C2        C        0.65625        0.62963        0.596113        0        
C3        C        0.625        0.648148        0.596113        0        
C4        C        0.65625        0.592592        0.596113        0        
C1        C        0.6875        0.018519        0.596113        0        
C2        C        0.71875        0.074075        0.596113        0        
C3        C        0.6875        0.092592        0.596113        0        
C4        C        0.71875        0.037037        0.596113        0        
C1        C        0.6875        0.12963        0.596113        0        
C2        C        0.71875        0.185185        0.596113        0        
C3        C        0.6875        0.203703        0.596113        0        
C4        C        0.71875        0.148148        0.596113        0        
C1        C        0.6875        0.24074099999999998        0.596113        0        
C2        C        0.71875        0.296297        0.596113        0        
C3        C        0.6875        0.314815        0.596113        0        
C4        C        0.71875        0.259259        0.596113        0        
C1        C        0.6875        0.351852        0.596113        0        
C2        C        0.71875        0.407408        0.596113        0        
C3        C        0.6875        0.42592500000000005        0.596113        0        
C4        C        0.71875        0.37037        0.596113        0        
C1        C        0.6875        0.46296300000000007        0.596113        0        
C2        C        0.71875        0.518519        0.596113        0        
C3        C        0.6875        0.537037        0.596113        0        
C4        C        0.71875        0.481481        0.596113        0        
C1        C        0.6875        0.574075        0.596113        0        
C2        C        0.71875        0.62963        0.596113        0        
C3        C        0.6875        0.648148        0.596113        0        
C4        C        0.71875        0.592592        0.596113        0        
C_FG        C        0.75        0.018519        0.596113        0.2        
C2        C        0.78125        0.074075        0.596113        0        
C3        C        0.75        0.092592        0.596113        0        
C4        C        0.78125        0.037037        0.596113        0        
C_FG        C        0.75        0.12963        0.596113        0.2        
C2        C        0.78125        0.185185        0.596113        0        
C3        C        0.75        0.203703        0.596113        0        
C4        C        0.78125        0.148148        0.596113        0        
C_FG        C        0.75        0.24074099999999998        0.596113        0.2        
C2        C        0.78125        0.296297        0.596113        0        
C3        C        0.75        0.314815        0.596113        0        
C4        C        0.78125        0.259259        0.596113        0        
C_FG        C        0.75        0.351852        0.596113        0.2        
C2        C        0.78125        0.407408        0.596113        0        
C3        C        0.75        0.42592500000000005        0.596113        0        
C4        C        0.78125        0.37037        0.596113        0        
C_FG        C        0.75        0.46296300000000007        0.596113        0.2        
C2        C        0.78125        0.518519        0.596113        0        
C3        C        0.75        0.537037        0.596113        0        
C4        C        0.78125        0.481481        0.596113        0        
C_FG        C        0.75        0.574075        0.596113        0.2        
C2        C        0.78125        0.62963        0.596113        0        
C3        C        0.75        0.648148        0.596113        0        
C4        C        0.78125        0.592592        0.596113        0        
C1        C        0.8125        0.018519        0.596113        0        
C2        C        0.84375        0.074075        0.596113        0        
C3        C        0.8125        0.092592        0.596113        0        
C4        C        0.84375        0.037037        0.596113        0        
C1        C        0.8125        0.12963        0.596113        0        
C2        C        0.84375        0.185185        0.596113        0        
C3        C        0.8125        0.203703        0.596113        0        
C4        C        0.84375        0.148148        0.596113        0        
C1        C        0.8125        0.24074099999999998        0.596113        0        
C2        C        0.84375        0.296297        0.596113        0        
C3        C        0.8125        0.314815        0.596113        0        
C4        C        0.84375        0.259259        0.596113        0        
C1        C        0.8125        0.351852        0.596113        0        
C2        C        0.84375        0.407408        0.596113        0        
C3        C        0.8125        0.42592500000000005        0.596113        0        
C4        C        0.84375        0.37037        0.596113        0        
C1        C        0.8125        0.46296300000000007        0.596113        0        
C2        C        0.84375        0.518519        0.596113        0        
C3        C        0.8125        0.537037        0.596113        0        
C4        C        0.84375        0.481481        0.596113        0        
C1        C        0.8125        0.574075        0.596113        0        
C2        C        0.84375        0.62963        0.596113        0        
C3        C        0.8125        0.648148        0.596113        0        
C4        C        0.84375        0.592592        0.596113        0        
C_FG        C        0.875        0.018519        0.596113        0.2        
C2        C        0.9062500000000001        0.074075        0.596113        0        
C3        C        0.875        0.092592        0.596113        0        
C4        C        0.9062500000000001        0.037037        0.596113        0        
C_FG        C        0.875        0.12963        0.596113        0.2        
C2        C        0.9062500000000001        0.185185        0.596113        0        
C3        C        0.875        0.203703        0.596113        0        
C4        C        0.9062500000000001        0.148148        0.596113        0        
C_FG        C        0.875        0.24074099999999998        0.596113        0.2        
C2        C        0.9062500000000001        0.296297        0.596113        0        
C3        C        0.875        0.314815        0.596113        0        
C4        C        0.9062500000000001        0.259259        0.596113        0        
C_FG        C        0.875        0.351852        0.596113        0.2        
C2        C        0.9062500000000001        0.407408        0.596113        0        
C3        C        0.875        0.42592500000000005        0.596113        0        
C4        C        0.9062500000000001        0.37037        0.596113        0        
C_FG        C        0.875        0.46296300000000007        0.596113        0.2        
C2        C        0.9062500000000001        0.518519        0.596113        0        
C3        C        0.875        0.537037        0.596113        0        
C4        C        0.9062500000000001        0.481481        0.596113        0        
C_FG        C        0.875        0.574075        0.596113        0.2        
C2        C        0.9062500000000001        0.62963        0.596113        0        
C3        C        0.875        0.648148        0.596113        0        
C4        C        0.9062500000000001        0.592592        0.596113        0        
C1        C        0.9375        0.018519        0.596113        0        
C2        C        0.9687500000000001        0.074075        0.596113        0        
C3        C        0.9375        0.092592        0.596113        0        
C4        C        0.9687500000000001        0.037037        0.596113        0        
C1        C        0.9375        0.12963        0.596113        0        
C2        C        0.9687500000000001        0.185185        0.596113        0        
C3        C        0.9375        0.203703        0.596113        0        
C4        C        0.9687500000000001        0.148148        0.596113        0        
C1        C        0.9375        0.24074099999999998        0.596113        0        
C2        C        0.9687500000000001        0.296297        0.596113        0        
C3        C        0.9375        0.314815        0.596113        0        
C4        C        0.9687500000000001        0.259259        0.596113        0        
C1        C        0.9375        0.351852        0.596113        0        
C2        C        0.9687500000000001        0.407408        0.596113        0        
C3        C        0.9375        0.42592500000000005        0.596113        0        
C4        C        0.9687500000000001        0.37037        0.596113        0        
C1        C        0.9375        0.46296300000000007        0.596113        0        
C2        C        0.9687500000000001        0.518519        0.596113        0        
C3        C        0.9375        0.537037        0.596113        0        
C4        C        0.9687500000000001        0.481481        0.596113        0        
C1        C        0.9375        0.574075        0.596113        0        
C2        C        0.9687500000000001        0.62963        0.596113        0        
C3        C        0.9375        0.648148        0.596113        0        
C4        C        0.9687500000000001        0.592592        0.596113        0        
C_FG        C        0.0        0.685186        0.596113        0.2        
C1        C        0.0625        0.685186        0.596113        0        
C_FG        C        0.125        0.685186        0.596113        0.2        
C1        C        0.1875        0.685186        0.596113        0        
C_FG        C        0.25        0.685186        0.596113        0.2        
C1        C        0.3125        0.685186        0.596113        0        
C_FG        C        0.375        0.685186        0.596113        0.2        
C1        C        0.4375        0.685186        0.596113        0        
C_FG        C        0.5        0.685186        0.596113        0.2        
C1        C        0.5625        0.685186        0.596113        0        
C_FG        C        0.625        0.685186        0.596113        0.2        
C1        C        0.6875        0.685186        0.596113        0        
C_FG        C        0.75        0.685186        0.596113        0.2        
C1        C        0.8125        0.685186        0.596113        0        
C_FG        C        0.875        0.685186        0.596113        0.2        
C1        C        0.9375        0.685186        0.596113        0        
C2        C        0.03125        0.740741        0.596113        0        
C2        C        0.09375        0.740741        0.596113        0        
C2        C        0.15625        0.740741        0.596113        0        
C2        C        0.21875        0.740741        0.596113        0        
C2        C        0.28125        0.740741        0.596113        0        
C2        C        0.34375        0.740741        0.596113        0        
C2        C        0.40625        0.740741        0.596113        0        
C2        C        0.46875        0.740741        0.596113        0        
C2        C        0.53125        0.740741        0.596113        0        
C2        C        0.59375        0.740741        0.596113        0        
C2        C        0.65625        0.740741        0.596113        0        
C2        C        0.71875        0.740741        0.596113        0        
C2        C        0.78125        0.740741        0.596113        0        
C2        C        0.84375        0.740741        0.596113        0        
C2        C        0.9062500000000001        0.740741        0.596113        0        
C2        C        0.9687500000000001        0.740741        0.596113        0        
C3        C        0.0        0.759259        0.596113        0        
C3        C        0.0625        0.759259        0.596113        0        
C3        C        0.125        0.759259        0.596113        0        
C3        C        0.1875        0.759259        0.596113        0        
C3        C        0.25        0.759259        0.596113        0        
C3        C        0.3125        0.759259        0.596113        0        
C3        C        0.375        0.759259        0.596113        0        
C3        C        0.4375        0.759259        0.596113        0        
C3        C        0.5        0.759259        0.596113        0        
C3        C        0.5625        0.759259        0.596113        0        
C3        C        0.625        0.759259        0.596113        0        
C3        C        0.6875        0.759259        0.596113        0        
C3        C        0.75        0.759259        0.596113        0        
C3        C        0.8125        0.759259        0.596113        0        
C3        C        0.875        0.759259        0.596113        0        
C3        C        0.9375        0.759259        0.596113        0        
C4        C        0.03125        0.703703        0.596113        0        
C4        C        0.09375        0.703703        0.596113        0        
C4        C        0.15625        0.703703        0.596113        0        
C4        C        0.21875        0.703703        0.596113        0        
C4        C        0.28125        0.703703        0.596113        0        
C4        C        0.34375        0.703703        0.596113        0        
C4        C        0.40625        0.703703        0.596113        0        
C4        C        0.46875        0.703703        0.596113        0        
C4        C        0.53125        0.703703        0.596113        0        
C4        C        0.59375        0.703703        0.596113        0        
C4        C        0.65625        0.703703        0.596113        0        
C4        C        0.71875        0.703703        0.596113        0        
C4        C        0.78125        0.703703        0.596113        0        
C4        C        0.84375        0.703703        0.596113        0        
C4        C        0.9062500000000001        0.703703        0.596113        0        
C4        C        0.9687500000000001        0.703703        0.596113        0        
C_FG        C        0.0        0.796297        0.596113        0.2        
C1        C        0.0625        0.796297        0.596113        0        
C_FG        C        0.125        0.796297        0.596113        0.2        
C1        C        0.1875        0.796297        0.596113        0        
C_FG        C        0.25        0.796297        0.596113        0.2        
C1        C        0.3125        0.796297        0.596113        0        
C_FG        C        0.375        0.796297        0.596113        0.2        
C1        C        0.4375        0.796297        0.596113        0        
C_FG        C        0.5        0.796297        0.596113        0.2        
C1        C        0.5625        0.796297        0.596113        0        
C_FG        C        0.625        0.796297        0.596113        0.2        
C1        C        0.6875        0.796297        0.596113        0        
C_FG        C        0.75        0.796297        0.596113        0.2        
C1        C        0.8125        0.796297        0.596113        0        
C_FG        C        0.875        0.796297        0.596113        0.2        
C1        C        0.9375        0.796297        0.596113        0        
C2        C        0.03125        0.851852        0.596113        0        
C2        C        0.09375        0.851852        0.596113        0        
C2        C        0.15625        0.851852        0.596113        0        
C2        C        0.21875        0.851852        0.596113        0        
C2        C        0.28125        0.851852        0.596113        0        
C2        C        0.34375        0.851852        0.596113        0        
C2        C        0.40625        0.851852        0.596113        0        
C2        C        0.46875        0.851852        0.596113        0        
C2        C        0.53125        0.851852        0.596113        0        
C2        C        0.59375        0.851852        0.596113        0        
C2        C        0.65625        0.851852        0.596113        0        
C2        C        0.71875        0.851852        0.596113        0        
C2        C        0.78125        0.851852        0.596113        0        
C2        C        0.84375        0.851852        0.596113        0        
C2        C        0.9062500000000001        0.851852        0.596113        0        
C2        C        0.9687500000000001        0.851852        0.596113        0        
C3        C        0.0        0.87037        0.596113        0        
C3        C        0.0625        0.87037        0.596113        0        
C3        C        0.125        0.87037        0.596113        0        
C3        C        0.1875        0.87037        0.596113        0        
C3        C        0.25        0.87037        0.596113        0        
C3        C        0.3125        0.87037        0.596113        0        
C3        C        0.375        0.87037        0.596113        0        
C3        C        0.4375        0.87037        0.596113        0        
C3        C        0.5        0.87037        0.596113        0        
C3        C        0.5625        0.87037        0.596113        0        
C3        C        0.625        0.87037        0.596113        0        
C3        C        0.6875        0.87037        0.596113        0        
C3        C        0.75        0.87037        0.596113        0        
C3        C        0.8125        0.87037        0.596113        0        
C3        C        0.875        0.87037        0.596113        0        
C3        C        0.9375        0.87037        0.596113        0        
C4        C        0.03125        0.814814        0.596113        0        
C4        C        0.09375        0.814814        0.596113        0        
C4        C        0.15625        0.814814        0.596113        0        
C4        C        0.21875        0.814814        0.596113        0        
C4        C        0.28125        0.814814        0.596113        0        
C4        C        0.34375        0.814814        0.596113        0        
C4        C        0.40625        0.814814        0.596113        0        
C4        C        0.46875        0.814814        0.596113        0        
C4        C        0.53125        0.814814        0.596113        0        
C4        C        0.59375        0.814814        0.596113        0        
C4        C        0.65625        0.814814        0.596113        0        
C4        C        0.71875        0.814814        0.596113        0        
C4        C        0.78125        0.814814        0.596113        0        
C4        C        0.84375        0.814814        0.596113        0        
C4        C        0.9062500000000001        0.814814        0.596113        0        
C4        C        0.9687500000000001        0.814814        0.596113        0        
C_FG        C        0.0        0.907408        0.596113        0.2        
C1        C        0.0625        0.907408        0.596113        0        
C_FG        C        0.125        0.907408        0.596113        0.2        
C1        C        0.1875        0.907408        0.596113        0        
C_FG        C        0.25        0.907408        0.596113        0.2        
C1        C        0.3125        0.907408        0.596113        0        
C_FG        C        0.375        0.907408        0.596113        0.2        
C1        C        0.4375        0.907408        0.596113        0        
C_FG        C        0.5        0.907408        0.596113        0.2        
C1        C        0.5625        0.907408        0.596113        0        
C_FG        C        0.625        0.907408        0.596113        0.2        
C1        C        0.6875        0.907408        0.596113        0        
C_FG        C        0.75        0.907408        0.596113        0.2        
C1        C        0.8125        0.907408        0.596113        0        
C_FG        C        0.875        0.907408        0.596113        0.2        
C1        C        0.9375        0.907408        0.596113        0        
C2        C        0.03125        0.962963        0.596113        0        
C2        C        0.09375        0.962963        0.596113        0        
C2        C        0.15625        0.962963        0.596113        0        
C2        C        0.21875        0.962963        0.596113        0        
C2        C        0.28125        0.962963        0.596113        0        
C2        C        0.34375        0.962963        0.596113        0        
C2        C        0.40625        0.962963        0.596113        0        
C2        C        0.46875        0.962963        0.596113        0        
C2        C        0.53125        0.962963        0.596113        0        
C2        C        0.59375        0.962963        0.596113        0        
C2        C        0.65625        0.962963        0.596113        0        
C2        C        0.71875        0.962963        0.596113        0        
C2        C        0.78125        0.962963        0.596113        0        
C2        C        0.84375        0.962963        0.596113        0        
C2        C        0.9062500000000001        0.962963        0.596113        0        
C2        C        0.9687500000000001        0.962963        0.596113        0        
C3        C        0.0        0.9814809999999999        0.596113        0        
C3        C        0.0625        0.9814809999999999        0.596113        0        
C3        C        0.125        0.9814809999999999        0.596113        0        
C3        C        0.1875        0.9814809999999999        0.596113        0        
C3        C        0.25        0.9814809999999999        0.596113        0        
C3        C        0.3125        0.9814809999999999        0.596113        0        
C3        C        0.375        0.9814809999999999        0.596113        0        
C3        C        0.4375        0.9814809999999999        0.596113        0        
C3        C        0.5        0.9814809999999999        0.596113        0        
C3        C        0.5625        0.9814809999999999        0.596113        0        
C3        C        0.625        0.9814809999999999        0.596113        0        
C3        C        0.6875        0.9814809999999999        0.596113        0        
C3        C        0.75        0.9814809999999999        0.596113        0        
C3        C        0.8125        0.9814809999999999        0.596113        0        
C3        C        0.875        0.9814809999999999        0.596113        0        
C3        C        0.9375        0.9814809999999999        0.596113        0        
C4        C        0.03125        0.925925        0.596113        0        
C4        C        0.09375        0.925925        0.596113        0        
C4        C        0.15625        0.925925        0.596113        0        
C4        C        0.21875        0.925925        0.596113        0        
C4        C        0.28125        0.925925        0.596113        0        
C4        C        0.34375        0.925925        0.596113        0        
C4        C        0.40625        0.925925        0.596113        0        
C4        C        0.46875        0.925925        0.596113        0        
C4        C        0.53125        0.925925        0.596113        0        
C4        C        0.59375        0.925925        0.596113        0        
C4        C        0.65625        0.925925        0.596113        0        
C4        C        0.71875        0.925925        0.596113        0        
C4        C        0.78125        0.925925        0.596113        0        
C4        C        0.84375        0.925925        0.596113        0        
C4        C        0.9062500000000001        0.925925        0.596113        0        
C4        C        0.9687500000000001        0.925925        0.596113        0        
C1        C        0.0        0.018519        0.668467        0        
C2        C        0.03125        0.074075        0.668467        0        
C3        C        0.0        0.092592        0.668467        0        
C4        C        0.03125        0.037037        0.668467        0        
C1        C        0.0        0.12963        0.668467        0        
C2        C        0.03125        0.185185        0.668467        0        
C3        C        0.0        0.203703        0.668467        0        
C4        C        0.03125        0.148148        0.668467        0        
C1        C        0.0        0.24074099999999998        0.668467        0        
C2        C        0.03125        0.296297        0.668467        0        
C3        C        0.0        0.314815        0.668467        0        
C4        C        0.03125        0.259259        0.668467        0        
C1        C        0.0        0.351852        0.668467        0        
C2        C        0.03125        0.407408        0.668467        0        
C3        C        0.0        0.42592500000000005        0.668467        0        
C4        C        0.03125        0.37037        0.668467        0        
C1        C        0.0        0.46296300000000007        0.668467        0        
C2        C        0.03125        0.518519        0.668467        0        
C3        C        0.0        0.537037        0.668467        0        
C4        C        0.03125        0.481481        0.668467        0        
C1        C        0.0        0.574075        0.668467        0        
C2        C        0.03125        0.62963        0.668467        0        
C3        C        0.0        0.648148        0.668467        0        
C4        C        0.03125        0.592592        0.668467        0        
C1        C        0.0625        0.018519        0.668467        0        
C2        C        0.09375        0.074075        0.668467        0        
C3        C        0.0625        0.092592        0.668467        0        
C4        C        0.09375        0.037037        0.668467        0        
C1        C        0.0625        0.12963        0.668467        0        
C2        C        0.09375        0.185185        0.668467        0        
C3        C        0.0625        0.203703        0.668467        0        
C4        C        0.09375        0.148148        0.668467        0        
C1        C        0.0625        0.24074099999999998        0.668467        0        
C2        C        0.09375        0.296297        0.668467        0        
C3        C        0.0625        0.314815        0.668467        0        
C4        C        0.09375        0.259259        0.668467        0        
C1        C        0.0625        0.351852        0.668467        0        
C2        C        0.09375        0.407408        0.668467        0        
C3        C        0.0625        0.42592500000000005        0.668467        0        
C4        C        0.09375        0.37037        0.668467        0        
C1        C        0.0625        0.46296300000000007        0.668467        0        
C2        C        0.09375        0.518519        0.668467        0        
C3        C        0.0625        0.537037        0.668467        0        
C4        C        0.09375        0.481481        0.668467        0        
C1        C        0.0625        0.574075        0.668467        0        
C2        C        0.09375        0.62963        0.668467        0        
C3        C        0.0625        0.648148        0.668467        0        
C4        C        0.09375        0.592592        0.668467        0        
C1        C        0.125        0.018519        0.668467        0        
C2        C        0.15625        0.074075        0.668467        0        
C3        C        0.125        0.092592        0.668467        0        
C4        C        0.15625        0.037037        0.668467        0        
C1        C        0.125        0.12963        0.668467        0        
C2        C        0.15625        0.185185        0.668467        0        
C3        C        0.125        0.203703        0.668467        0        
C4        C        0.15625        0.148148        0.668467        0        
C1        C        0.125        0.24074099999999998        0.668467        0        
C2        C        0.15625        0.296297        0.668467        0        
C3        C        0.125        0.314815        0.668467        0        
C4        C        0.15625        0.259259        0.668467        0        
C1        C        0.125        0.351852        0.668467        0        
C2        C        0.15625        0.407408        0.668467        0        
C3        C        0.125        0.42592500000000005        0.668467        0        
C4        C        0.15625        0.37037        0.668467        0        
C1        C        0.125        0.46296300000000007        0.668467        0        
C2        C        0.15625        0.518519        0.668467        0        
C3        C        0.125        0.537037        0.668467        0        
C4        C        0.15625        0.481481        0.668467        0        
C1        C        0.125        0.574075        0.668467        0        
C2        C        0.15625        0.62963        0.668467        0        
C3        C        0.125        0.648148        0.668467        0        
C4        C        0.15625        0.592592        0.668467        0        
C1        C        0.1875        0.018519        0.668467        0        
C2        C        0.21875        0.074075        0.668467        0        
C3        C        0.1875        0.092592        0.668467        0        
C4        C        0.21875        0.037037        0.668467        0        
C1        C        0.1875        0.12963        0.668467        0        
C2        C        0.21875        0.185185        0.668467        0        
C3        C        0.1875        0.203703        0.668467        0        
C4        C        0.21875        0.148148        0.668467        0        
C1        C        0.1875        0.24074099999999998        0.668467        0        
C2        C        0.21875        0.296297        0.668467        0        
C3        C        0.1875        0.314815        0.668467        0        
C4        C        0.21875        0.259259        0.668467        0        
C1        C        0.1875        0.351852        0.668467        0        
C2        C        0.21875        0.407408        0.668467        0        
C3        C        0.1875        0.42592500000000005        0.668467        0        
C4        C        0.21875        0.37037        0.668467        0        
C1        C        0.1875        0.46296300000000007        0.668467        0        
C2        C        0.21875        0.518519        0.668467        0        
C3        C        0.1875        0.537037        0.668467        0        
C4        C        0.21875        0.481481        0.668467        0        
C1        C        0.1875        0.574075        0.668467        0        
C2        C        0.21875        0.62963        0.668467        0        
C3        C        0.1875        0.648148        0.668467        0        
C4        C        0.21875        0.592592        0.668467        0        
C1        C        0.25        0.018519        0.668467        0        
C2        C        0.28125        0.074075        0.668467        0        
C3        C        0.25        0.092592        0.668467        0        
C4        C        0.28125        0.037037        0.668467        0        
C1        C        0.25        0.12963        0.668467        0        
C2        C        0.28125        0.185185        0.668467        0        
C3        C        0.25        0.203703        0.668467        0        
C4        C        0.28125        0.148148        0.668467        0        
C1        C        0.25        0.24074099999999998        0.668467        0        
C2        C        0.28125        0.296297        0.668467        0        
C3        C        0.25        0.314815        0.668467        0        
C4        C        0.28125        0.259259        0.668467        0        
C1        C        0.25        0.351852        0.668467        0        
C2        C        0.28125        0.407408        0.668467        0        
C3        C        0.25        0.42592500000000005        0.668467        0        
C4        C        0.28125        0.37037        0.668467        0        
C1        C        0.25        0.46296300000000007        0.668467        0        
C2        C        0.28125        0.518519        0.668467        0        
C3        C        0.25        0.537037        0.668467        0        
C4        C        0.28125        0.481481        0.668467        0        
C1        C        0.25        0.574075        0.668467        0        
C2        C        0.28125        0.62963        0.668467        0        
C3        C        0.25        0.648148        0.668467        0        
C4        C        0.28125        0.592592        0.668467        0        
C1        C        0.3125        0.018519        0.668467        0        
C2        C        0.34375        0.074075        0.668467        0        
C3        C        0.3125        0.092592        0.668467        0        
C4        C        0.34375        0.037037        0.668467        0        
C1        C        0.3125        0.12963        0.668467        0        
C2        C        0.34375        0.185185        0.668467        0        
C3        C        0.3125        0.203703        0.668467        0        
C4        C        0.34375        0.148148        0.668467        0        
C1        C        0.3125        0.24074099999999998        0.668467        0        
C2        C        0.34375        0.296297        0.668467        0        
C3        C        0.3125        0.314815        0.668467        0        
C4        C        0.34375        0.259259        0.668467        0        
C1        C        0.3125        0.351852        0.668467        0        
C2        C        0.34375        0.407408        0.668467        0        
C3        C        0.3125        0.42592500000000005        0.668467        0        
C4        C        0.34375        0.37037        0.668467        0        
C1        C        0.3125        0.46296300000000007        0.668467        0        
C2        C        0.34375        0.518519        0.668467        0        
C3        C        0.3125        0.537037        0.668467        0        
C4        C        0.34375        0.481481        0.668467        0        
C1        C        0.3125        0.574075        0.668467        0        
C2        C        0.34375        0.62963        0.668467        0        
C3        C        0.3125        0.648148        0.668467        0        
C4        C        0.34375        0.592592        0.668467        0        
C1        C        0.375        0.018519        0.668467        0        
C2        C        0.40625        0.074075        0.668467        0        
C3        C        0.375        0.092592        0.668467        0        
C4        C        0.40625        0.037037        0.668467        0        
C1        C        0.375        0.12963        0.668467        0        
C2        C        0.40625        0.185185        0.668467        0        
C3        C        0.375        0.203703        0.668467        0        
C4        C        0.40625        0.148148        0.668467        0        
C1        C        0.375        0.24074099999999998        0.668467        0        
C2        C        0.40625        0.296297        0.668467        0        
C3        C        0.375        0.314815        0.668467        0        
C4        C        0.40625        0.259259        0.668467        0        
C1        C        0.375        0.351852        0.668467        0        
C2        C        0.40625        0.407408        0.668467        0        
C3        C        0.375        0.42592500000000005        0.668467        0        
C4        C        0.40625        0.37037        0.668467        0        
C1        C        0.375        0.46296300000000007        0.668467        0        
C2        C        0.40625        0.518519        0.668467        0        
C3        C        0.375        0.537037        0.668467        0        
C4        C        0.40625        0.481481        0.668467        0        
C1        C        0.375        0.574075        0.668467        0        
C2        C        0.40625        0.62963        0.668467        0        
C3        C        0.375        0.648148        0.668467        0        
C4        C        0.40625        0.592592        0.668467        0        
C1        C        0.4375        0.018519        0.668467        0        
C2        C        0.46875        0.074075        0.668467        0        
C3        C        0.4375        0.092592        0.668467        0        
C4        C        0.46875        0.037037        0.668467        0        
C1        C        0.4375        0.12963        0.668467        0        
C2        C        0.46875        0.185185        0.668467        0        
C3        C        0.4375        0.203703        0.668467        0        
C4        C        0.46875        0.148148        0.668467        0        
C1        C        0.4375        0.24074099999999998        0.668467        0        
C2        C        0.46875        0.296297        0.668467        0        
C3        C        0.4375        0.314815        0.668467        0        
C4        C        0.46875        0.259259        0.668467        0        
C1        C        0.4375        0.351852        0.668467        0        
C2        C        0.46875        0.407408        0.668467        0        
C3        C        0.4375        0.42592500000000005        0.668467        0        
C4        C        0.46875        0.37037        0.668467        0        
C1        C        0.4375        0.46296300000000007        0.668467        0        
C2        C        0.46875        0.518519        0.668467        0        
C3        C        0.4375        0.537037        0.668467        0        
C4        C        0.46875        0.481481        0.668467        0        
C1        C        0.4375        0.574075        0.668467        0        
C2        C        0.46875        0.62963        0.668467        0        
C3        C        0.4375        0.648148        0.668467        0        
C4        C        0.46875        0.592592        0.668467        0        
C1        C        0.5        0.018519        0.668467        0        
C2        C        0.53125        0.074075        0.668467        0        
C3        C        0.5        0.092592        0.668467        0        
C4        C        0.53125        0.037037        0.668467        0        
C1        C        0.5        0.12963        0.668467        0        
C2        C        0.53125        0.185185        0.668467        0        
C3        C        0.5        0.203703        0.668467        0        
C4        C        0.53125        0.148148        0.668467        0        
C1        C        0.5        0.24074099999999998        0.668467        0        
C2        C        0.53125        0.296297        0.668467        0        
C3        C        0.5        0.314815        0.668467        0        
C4        C        0.53125        0.259259        0.668467        0        
C1        C        0.5        0.351852        0.668467        0        
C2        C        0.53125        0.407408        0.668467        0        
C3        C        0.5        0.42592500000000005        0.668467        0        
C4        C        0.53125        0.37037        0.668467        0        
C1        C        0.5        0.46296300000000007        0.668467        0        
C2        C        0.53125        0.518519        0.668467        0        
C3        C        0.5        0.537037        0.668467        0        
C4        C        0.53125        0.481481        0.668467        0        
C1        C        0.5        0.574075        0.668467        0        
C2        C        0.53125        0.62963        0.668467        0        
C3        C        0.5        0.648148        0.668467        0        
C4        C        0.53125        0.592592        0.668467        0        
C1        C        0.5625        0.018519        0.668467        0        
C2        C        0.59375        0.074075        0.668467        0        
C3        C        0.5625        0.092592        0.668467        0        
C4        C        0.59375        0.037037        0.668467        0        
C1        C        0.5625        0.12963        0.668467        0        
C2        C        0.59375        0.185185        0.668467        0        
C3        C        0.5625        0.203703        0.668467        0        
C4        C        0.59375        0.148148        0.668467        0        
C1        C        0.5625        0.24074099999999998        0.668467        0        
C2        C        0.59375        0.296297        0.668467        0        
C3        C        0.5625        0.314815        0.668467        0        
C4        C        0.59375        0.259259        0.668467        0        
C1        C        0.5625        0.351852        0.668467        0        
C2        C        0.59375        0.407408        0.668467        0        
C3        C        0.5625        0.42592500000000005        0.668467        0        
C4        C        0.59375        0.37037        0.668467        0        
C1        C        0.5625        0.46296300000000007        0.668467        0        
C2        C        0.59375        0.518519        0.668467        0        
C3        C        0.5625        0.537037        0.668467        0        
C4        C        0.59375        0.481481        0.668467        0        
C1        C        0.5625        0.574075        0.668467        0        
C2        C        0.59375        0.62963        0.668467        0        
C3        C        0.5625        0.648148        0.668467        0        
C4        C        0.59375        0.592592        0.668467        0        
C1        C        0.625        0.018519        0.668467        0        
C2        C        0.65625        0.074075        0.668467        0        
C3        C        0.625        0.092592        0.668467        0        
C4        C        0.65625        0.037037        0.668467        0        
C1        C        0.625        0.12963        0.668467        0        
C2        C        0.65625        0.185185        0.668467        0        
C3        C        0.625        0.203703        0.668467        0        
C4        C        0.65625        0.148148        0.668467        0        
C1        C        0.625        0.24074099999999998        0.668467        0        
C2        C        0.65625        0.296297        0.668467        0        
C3        C        0.625        0.314815        0.668467        0        
C4        C        0.65625        0.259259        0.668467        0        
C1        C        0.625        0.351852        0.668467        0        
C2        C        0.65625        0.407408        0.668467        0        
C3        C        0.625        0.42592500000000005        0.668467        0        
C4        C        0.65625        0.37037        0.668467        0        
C1        C        0.625        0.46296300000000007        0.668467        0        
C2        C        0.65625        0.518519        0.668467        0        
C3        C        0.625        0.537037        0.668467        0        
C4        C        0.65625        0.481481        0.668467        0        
C1        C        0.625        0.574075        0.668467        0        
C2        C        0.65625        0.62963        0.668467        0        
C3        C        0.625        0.648148        0.668467        0        
C4        C        0.65625        0.592592        0.668467        0        
C1        C        0.6875        0.018519        0.668467        0        
C2        C        0.71875        0.074075        0.668467        0        
C3        C        0.6875        0.092592        0.668467        0        
C4        C        0.71875        0.037037        0.668467        0        
C1        C        0.6875        0.12963        0.668467        0        
C2        C        0.71875        0.185185        0.668467        0        
C3        C        0.6875        0.203703        0.668467        0        
C4        C        0.71875        0.148148        0.668467        0        
C1        C        0.6875        0.24074099999999998        0.668467        0        
C2        C        0.71875        0.296297        0.668467        0        
C3        C        0.6875        0.314815        0.668467        0        
C4        C        0.71875        0.259259        0.668467        0        
C1        C        0.6875        0.351852        0.668467        0        
C2        C        0.71875        0.407408        0.668467        0        
C3        C        0.6875        0.42592500000000005        0.668467        0        
C4        C        0.71875        0.37037        0.668467        0        
C1        C        0.6875        0.46296300000000007        0.668467        0        
C2        C        0.71875        0.518519        0.668467        0        
C3        C        0.6875        0.537037        0.668467        0        
C4        C        0.71875        0.481481        0.668467        0        
C1        C        0.6875        0.574075        0.668467        0        
C2        C        0.71875        0.62963        0.668467        0        
C3        C        0.6875        0.648148        0.668467        0        
C4        C        0.71875        0.592592        0.668467        0        
C1        C        0.75        0.018519        0.668467        0        
C2        C        0.78125        0.074075        0.668467        0        
C3        C        0.75        0.092592        0.668467        0        
C4        C        0.78125        0.037037        0.668467        0        
C1        C        0.75        0.12963        0.668467        0        
C2        C        0.78125        0.185185        0.668467        0        
C3        C        0.75        0.203703        0.668467        0        
C4        C        0.78125        0.148148        0.668467        0        
C1        C        0.75        0.24074099999999998        0.668467        0        
C2        C        0.78125        0.296297        0.668467        0        
C3        C        0.75        0.314815        0.668467        0        
C4        C        0.78125        0.259259        0.668467        0        
C1        C        0.75        0.351852        0.668467        0        
C2        C        0.78125        0.407408        0.668467        0        
C3        C        0.75        0.42592500000000005        0.668467        0        
C4        C        0.78125        0.37037        0.668467        0        
C1        C        0.75        0.46296300000000007        0.668467        0        
C2        C        0.78125        0.518519        0.668467        0        
C3        C        0.75        0.537037        0.668467        0        
C4        C        0.78125        0.481481        0.668467        0        
C1        C        0.75        0.574075        0.668467        0        
C2        C        0.78125        0.62963        0.668467        0        
C3        C        0.75        0.648148        0.668467        0        
C4        C        0.78125        0.592592        0.668467        0        
C1        C        0.8125        0.018519        0.668467        0        
C2        C        0.84375        0.074075        0.668467        0        
C3        C        0.8125        0.092592        0.668467        0        
C4        C        0.84375        0.037037        0.668467        0        
C1        C        0.8125        0.12963        0.668467        0        
C2        C        0.84375        0.185185        0.668467        0        
C3        C        0.8125        0.203703        0.668467        0        
C4        C        0.84375        0.148148        0.668467        0        
C1        C        0.8125        0.24074099999999998        0.668467        0        
C2        C        0.84375        0.296297        0.668467        0        
C3        C        0.8125        0.314815        0.668467        0        
C4        C        0.84375        0.259259        0.668467        0        
C1        C        0.8125        0.351852        0.668467        0        
C2        C        0.84375        0.407408        0.668467        0        
C3        C        0.8125        0.42592500000000005        0.668467        0        
C4        C        0.84375        0.37037        0.668467        0        
C1        C        0.8125        0.46296300000000007        0.668467        0        
C2        C        0.84375        0.518519        0.668467        0        
C3        C        0.8125        0.537037        0.668467        0        
C4        C        0.84375        0.481481        0.668467        0        
C1        C        0.8125        0.574075        0.668467        0        
C2        C        0.84375        0.62963        0.668467        0        
C3        C        0.8125        0.648148        0.668467        0        
C4        C        0.84375        0.592592        0.668467        0        
C1        C        0.875        0.018519        0.668467        0        
C2        C        0.9062500000000001        0.074075        0.668467        0        
C3        C        0.875        0.092592        0.668467        0        
C4        C        0.9062500000000001        0.037037        0.668467        0        
C1        C        0.875        0.12963        0.668467        0        
C2        C        0.9062500000000001        0.185185        0.668467        0        
C3        C        0.875        0.203703        0.668467        0        
C4        C        0.9062500000000001        0.148148        0.668467        0        
C1        C        0.875        0.24074099999999998        0.668467        0        
C2        C        0.9062500000000001        0.296297        0.668467        0        
C3        C        0.875        0.314815        0.668467        0        
C4        C        0.9062500000000001        0.259259        0.668467        0        
C1        C        0.875        0.351852        0.668467        0        
C2        C        0.9062500000000001        0.407408        0.668467        0        
C3        C        0.875        0.42592500000000005        0.668467        0        
C4        C        0.9062500000000001        0.37037        0.668467        0        
C1        C        0.875        0.46296300000000007        0.668467        0        
C2        C        0.9062500000000001        0.518519        0.668467        0        
C3        C        0.875        0.537037        0.668467        0        
C4        C        0.9062500000000001        0.481481        0.668467        0        
C1        C        0.875        0.574075        0.668467        0        
C2        C        0.9062500000000001        0.62963        0.668467        0        
C3        C        0.875        0.648148        0.668467        0        
C4        C        0.9062500000000001        0.592592        0.668467        0        
C1        C        0.9375        0.018519        0.668467        0        
C2        C        0.9687500000000001        0.074075        0.668467        0        
C3        C        0.9375        0.092592        0.668467        0        
C4        C        0.9687500000000001        0.037037        0.668467        0        
C1        C        0.9375        0.12963        0.668467        0        
C2        C        0.9687500000000001        0.185185        0.668467        0        
C3        C        0.9375        0.203703        0.668467        0        
C4        C        0.9687500000000001        0.148148        0.668467        0        
C1        C        0.9375        0.24074099999999998        0.668467        0        
C2        C        0.9687500000000001        0.296297        0.668467        0        
C3        C        0.9375        0.314815        0.668467        0        
C4        C        0.9687500000000001        0.259259        0.668467        0        
C1        C        0.9375        0.351852        0.668467        0        
C2        C        0.9687500000000001        0.407408        0.668467        0        
C3        C        0.9375        0.42592500000000005        0.668467        0        
C4        C        0.9687500000000001        0.37037        0.668467        0        
C1        C        0.9375        0.46296300000000007        0.668467        0        
C2        C        0.9687500000000001        0.518519        0.668467        0        
C3        C        0.9375        0.537037        0.668467        0        
C4        C        0.9687500000000001        0.481481        0.668467        0        
C1        C        0.9375        0.574075        0.668467        0        
C2        C        0.9687500000000001        0.62963        0.668467        0        
C3        C        0.9375        0.648148        0.668467        0        
C4        C        0.9687500000000001        0.592592        0.668467        0        
C1        C        0.0        0.685186        0.668467        0        
C1        C        0.0625        0.685186        0.668467        0        
C1        C        0.125        0.685186        0.668467        0        
C1        C        0.1875        0.685186        0.668467        0        
C1        C        0.25        0.685186        0.668467        0        
C1        C        0.3125        0.685186        0.668467        0        
C1        C        0.375        0.685186        0.668467        0        
C1        C        0.4375        0.685186        0.668467        0        
C1        C        0.5        0.685186        0.668467        0        
C1        C        0.5625        0.685186        0.668467        0        
C1        C        0.625        0.685186        0.668467        0        
C1        C        0.6875        0.685186        0.668467        0        
C1        C        0.75        0.685186        0.668467        0        
C1        C        0.8125        0.685186        0.668467        0        
C1        C        0.875        0.685186        0.668467        0        
C1        C        0.9375        0.685186        0.668467        0        
C2        C        0.03125        0.740741        0.668467        0        
C2        C        0.09375        0.740741        0.668467        0        
C2        C        0.15625        0.740741        0.668467        0        
C2        C        0.21875        0.740741        0.668467        0        
C2        C        0.28125        0.740741        0.668467        0        
C2        C        0.34375        0.740741        0.668467        0        
C2        C        0.40625        0.740741        0.668467        0        
C2        C        0.46875        0.740741        0.668467        0        
C2        C        0.53125        0.740741        0.668467        0        
C2        C        0.59375        0.740741        0.668467        0        
C2        C        0.65625        0.740741        0.668467        0        
C2        C        0.71875        0.740741        0.668467        0        
C2        C        0.78125        0.740741        0.668467        0        
C2        C        0.84375        0.740741        0.668467        0        
C2        C        0.9062500000000001        0.740741        0.668467        0        
C2        C        0.9687500000000001        0.740741        0.668467        0        
C3        C        0.0        0.759259        0.668467        0        
C3        C        0.0625        0.759259        0.668467        0        
C3        C        0.125        0.759259        0.668467        0        
C3        C        0.1875        0.759259        0.668467        0        
C3        C        0.25        0.759259        0.668467        0        
C3        C        0.3125        0.759259        0.668467        0        
C3        C        0.375        0.759259        0.668467        0        
C3        C        0.4375        0.759259        0.668467        0        
C3        C        0.5        0.759259        0.668467        0        
C3        C        0.5625        0.759259        0.668467        0        
C3        C        0.625        0.759259        0.668467        0        
C3        C        0.6875        0.759259        0.668467        0        
C3        C        0.75        0.759259        0.668467        0        
C3        C        0.8125        0.759259        0.668467        0        
C3        C        0.875        0.759259        0.668467        0        
C3        C        0.9375        0.759259        0.668467        0        
C4        C        0.03125        0.703703        0.668467        0        
C4        C        0.09375        0.703703        0.668467        0        
C4        C        0.15625        0.703703        0.668467        0        
C4        C        0.21875        0.703703        0.668467        0        
C4        C        0.28125        0.703703        0.668467        0        
C4        C        0.34375        0.703703        0.668467        0        
C4        C        0.40625        0.703703        0.668467        0        
C4        C        0.46875        0.703703        0.668467        0        
C4        C        0.53125        0.703703        0.668467        0        
C4        C        0.59375        0.703703        0.668467        0        
C4        C        0.65625        0.703703        0.668467        0        
C4        C        0.71875        0.703703        0.668467        0        
C4        C        0.78125        0.703703        0.668467        0        
C4        C        0.84375        0.703703        0.668467        0        
C4        C        0.9062500000000001        0.703703        0.668467        0        
C4        C        0.9687500000000001        0.703703        0.668467        0        
C1        C        0.0        0.796297        0.668467        0        
C1        C        0.0625        0.796297        0.668467        0        
C1        C        0.125        0.796297        0.668467        0        
C1        C        0.1875        0.796297        0.668467        0        
C1        C        0.25        0.796297        0.668467        0        
C1        C        0.3125        0.796297        0.668467        0        
C1        C        0.375        0.796297        0.668467        0        
C1        C        0.4375        0.796297        0.668467        0        
C1        C        0.5        0.796297        0.668467        0        
C1        C        0.5625        0.796297        0.668467        0        
C1        C        0.625        0.796297        0.668467        0        
C1        C        0.6875        0.796297        0.668467        0        
C1        C        0.75        0.796297        0.668467        0        
C1        C        0.8125        0.796297        0.668467        0        
C1        C        0.875        0.796297        0.668467        0        
C1        C        0.9375        0.796297        0.668467        0        
C2        C        0.03125        0.851852        0.668467        0        
C2        C        0.09375        0.851852        0.668467        0        
C2        C        0.15625        0.851852        0.668467        0        
C2        C        0.21875        0.851852        0.668467        0        
C2        C        0.28125        0.851852        0.668467        0        
C2        C        0.34375        0.851852        0.668467        0        
C2        C        0.40625        0.851852        0.668467        0        
C2        C        0.46875        0.851852        0.668467        0        
C2        C        0.53125        0.851852        0.668467        0        
C2        C        0.59375        0.851852        0.668467        0        
C2        C        0.65625        0.851852        0.668467        0        
C2        C        0.71875        0.851852        0.668467        0        
C2        C        0.78125        0.851852        0.668467        0        
C2        C        0.84375        0.851852        0.668467        0        
C2        C        0.9062500000000001        0.851852        0.668467        0        
C2        C        0.9687500000000001        0.851852        0.668467        0        
C3        C        0.0        0.87037        0.668467        0        
C3        C        0.0625        0.87037        0.668467        0        
C3        C        0.125        0.87037        0.668467        0        
C3        C        0.1875        0.87037        0.668467        0        
C3        C        0.25        0.87037        0.668467        0        
C3        C        0.3125        0.87037        0.668467        0        
C3        C        0.375        0.87037        0.668467        0        
C3        C        0.4375        0.87037        0.668467        0        
C3        C        0.5        0.87037        0.668467        0        
C3        C        0.5625        0.87037        0.668467        0        
C3        C        0.625        0.87037        0.668467        0        
C3        C        0.6875        0.87037        0.668467        0        
C3        C        0.75        0.87037        0.668467        0        
C3        C        0.8125        0.87037        0.668467        0        
C3        C        0.875        0.87037        0.668467        0        
C3        C        0.9375        0.87037        0.668467        0        
C4        C        0.03125        0.814814        0.668467        0        
C4        C        0.09375        0.814814        0.668467        0        
C4        C        0.15625        0.814814        0.668467        0        
C4        C        0.21875        0.814814        0.668467        0        
C4        C        0.28125        0.814814        0.668467        0        
C4        C        0.34375        0.814814        0.668467        0        
C4        C        0.40625        0.814814        0.668467        0        
C4        C        0.46875        0.814814        0.668467        0        
C4        C        0.53125        0.814814        0.668467        0        
C4        C        0.59375        0.814814        0.668467        0        
C4        C        0.65625        0.814814        0.668467        0        
C4        C        0.71875        0.814814        0.668467        0        
C4        C        0.78125        0.814814        0.668467        0        
C4        C        0.84375        0.814814        0.668467        0        
C4        C        0.9062500000000001        0.814814        0.668467        0        
C4        C        0.9687500000000001        0.814814        0.668467        0        
C1        C        0.0        0.907408        0.668467        0        
C1        C        0.0625        0.907408        0.668467        0        
C1        C        0.125        0.907408        0.668467        0        
C1        C        0.1875        0.907408        0.668467        0        
C1        C        0.25        0.907408        0.668467        0        
C1        C        0.3125        0.907408        0.668467        0        
C1        C        0.375        0.907408        0.668467        0        
C1        C        0.4375        0.907408        0.668467        0        
C1        C        0.5        0.907408        0.668467        0        
C1        C        0.5625        0.907408        0.668467        0        
C1        C        0.625        0.907408        0.668467        0        
C1        C        0.6875        0.907408        0.668467        0        
C1        C        0.75        0.907408        0.668467        0        
C1        C        0.8125        0.907408        0.668467        0        
C1        C        0.875        0.907408        0.668467        0        
C1        C        0.9375        0.907408        0.668467        0        
C2        C        0.03125        0.962963        0.668467        0        
C2        C        0.09375        0.962963        0.668467        0        
C2        C        0.15625        0.962963        0.668467        0        
C2        C        0.21875        0.962963        0.668467        0        
C2        C        0.28125        0.962963        0.668467        0        
C2        C        0.34375        0.962963        0.668467        0        
C2        C        0.40625        0.962963        0.668467        0        
C2        C        0.46875        0.962963        0.668467        0        
C2        C        0.53125        0.962963        0.668467        0        
C2        C        0.59375        0.962963        0.668467        0        
C2        C        0.65625        0.962963        0.668467        0        
C2        C        0.71875        0.962963        0.668467        0        
C2        C        0.78125        0.962963        0.668467        0        
C2        C        0.84375        0.962963        0.668467        0        
C2        C        0.9062500000000001        0.962963        0.668467        0        
C2        C        0.9687500000000001        0.962963        0.668467        0        
C3        C        0.0        0.9814809999999999        0.668467        0        
C3        C        0.0625        0.9814809999999999        0.668467        0        
C3        C        0.125        0.9814809999999999        0.668467        0        
C3        C        0.1875        0.9814809999999999        0.668467        0        
C3        C        0.25        0.9814809999999999        0.668467        0        
C3        C        0.3125        0.9814809999999999        0.668467        0        
C3        C        0.375        0.9814809999999999        0.668467        0        
C3        C        0.4375        0.9814809999999999        0.668467        0        
C3        C        0.5        0.9814809999999999        0.668467        0        
C3        C        0.5625        0.9814809999999999        0.668467        0        
C3        C        0.625        0.9814809999999999        0.668467        0        
C3        C        0.6875        0.9814809999999999        0.668467        0        
C3        C        0.75        0.9814809999999999        0.668467        0        
C3        C        0.8125        0.9814809999999999        0.668467        0        
C3        C        0.875        0.9814809999999999        0.668467        0        
C3        C        0.9375        0.9814809999999999        0.668467        0        
C4        C        0.03125        0.925925        0.668467        0        
C4        C        0.09375        0.925925        0.668467        0        
C4        C        0.15625        0.925925        0.668467        0        
C4        C        0.21875        0.925925        0.668467        0        
C4        C        0.28125        0.925925        0.668467        0        
C4        C        0.34375        0.925925        0.668467        0        
C4        C        0.40625        0.925925        0.668467        0        
C4        C        0.46875        0.925925        0.668467        0        
C4        C        0.53125        0.925925        0.668467        0        
C4        C        0.59375        0.925925        0.668467        0        
C4        C        0.65625        0.925925        0.668467        0        
C4        C        0.71875        0.925925        0.668467        0        
C4        C        0.78125        0.925925        0.668467        0        
C4        C        0.84375        0.925925        0.668467        0        
C4        C        0.9062500000000001        0.925925        0.668467        0        
C4        C        0.9687500000000001        0.925925        0.668467        0        
C1        C        0.0        0.018519        0.7408210000000001        0        
C2        C        0.03125        0.074075        0.7408210000000001        0        
C3        C        0.0        0.092592        0.7408210000000001        0        
C4        C        0.03125        0.037037        0.7408210000000001        0        
C1        C        0.0        0.12963        0.7408210000000001        0        
C2        C        0.03125        0.185185        0.7408210000000001        0        
C3        C        0.0        0.203703        0.7408210000000001        0        
C4        C        0.03125        0.148148        0.7408210000000001        0        
C1        C        0.0        0.24074099999999998        0.7408210000000001        0        
C2        C        0.03125        0.296297        0.7408210000000001        0        
C3        C        0.0        0.314815        0.7408210000000001        0        
C4        C        0.03125        0.259259        0.7408210000000001        0        
C1        C        0.0        0.351852        0.7408210000000001        0        
C2        C        0.03125        0.407408        0.7408210000000001        0        
C3        C        0.0        0.42592500000000005        0.7408210000000001        0        
C4        C        0.03125        0.37037        0.7408210000000001        0        
C1        C        0.0        0.46296300000000007        0.7408210000000001        0        
C2        C        0.03125        0.518519        0.7408210000000001        0        
C3        C        0.0        0.537037        0.7408210000000001        0        
C4        C        0.03125        0.481481        0.7408210000000001        0        
C1        C        0.0        0.574075        0.7408210000000001        0        
C2        C        0.03125        0.62963        0.7408210000000001        0        
C3        C        0.0        0.648148        0.7408210000000001        0        
C4        C        0.03125        0.592592        0.7408210000000001        0        
C1        C        0.0625        0.018519        0.7408210000000001        0        
C2        C        0.09375        0.074075        0.7408210000000001        0        
C3        C        0.0625        0.092592        0.7408210000000001        0        
C4        C        0.09375        0.037037        0.7408210000000001        0        
C1        C        0.0625        0.12963        0.7408210000000001        0        
C2        C        0.09375        0.185185        0.7408210000000001        0        
C3        C        0.0625        0.203703        0.7408210000000001        0        
C4        C        0.09375        0.148148        0.7408210000000001        0        
C1        C        0.0625        0.24074099999999998        0.7408210000000001        0        
C2        C        0.09375        0.296297        0.7408210000000001        0        
C3        C        0.0625        0.314815        0.7408210000000001        0        
C4        C        0.09375        0.259259        0.7408210000000001        0        
C1        C        0.0625        0.351852        0.7408210000000001        0        
C2        C        0.09375        0.407408        0.7408210000000001        0        
C3        C        0.0625        0.42592500000000005        0.7408210000000001        0        
C4        C        0.09375        0.37037        0.7408210000000001        0        
C1        C        0.0625        0.46296300000000007        0.7408210000000001        0        
C2        C        0.09375        0.518519        0.7408210000000001        0        
C3        C        0.0625        0.537037        0.7408210000000001        0        
C4        C        0.09375        0.481481        0.7408210000000001        0        
C1        C        0.0625        0.574075        0.7408210000000001        0        
C2        C        0.09375        0.62963        0.7408210000000001        0        
C3        C        0.0625        0.648148        0.7408210000000001        0        
C4        C        0.09375        0.592592        0.7408210000000001        0        
C1        C        0.125        0.018519        0.7408210000000001        0        
C2        C        0.15625        0.074075        0.7408210000000001        0        
C3        C        0.125        0.092592        0.7408210000000001        0        
C4        C        0.15625        0.037037        0.7408210000000001        0        
C1        C        0.125        0.12963        0.7408210000000001        0        
C2        C        0.15625        0.185185        0.7408210000000001        0        
C3        C        0.125        0.203703        0.7408210000000001        0        
C4        C        0.15625        0.148148        0.7408210000000001        0        
C1        C        0.125        0.24074099999999998        0.7408210000000001        0        
C2        C        0.15625        0.296297        0.7408210000000001        0        
C3        C        0.125        0.314815        0.7408210000000001        0        
C4        C        0.15625        0.259259        0.7408210000000001        0        
C1        C        0.125        0.351852        0.7408210000000001        0        
C2        C        0.15625        0.407408        0.7408210000000001        0        
C3        C        0.125        0.42592500000000005        0.7408210000000001        0        
C4        C        0.15625        0.37037        0.7408210000000001        0        
C1        C        0.125        0.46296300000000007        0.7408210000000001        0        
C2        C        0.15625        0.518519        0.7408210000000001        0        
C3        C        0.125        0.537037        0.7408210000000001        0        
C4        C        0.15625        0.481481        0.7408210000000001        0        
C1        C        0.125        0.574075        0.7408210000000001        0        
C2        C        0.15625        0.62963        0.7408210000000001        0        
C3        C        0.125        0.648148        0.7408210000000001        0        
C4        C        0.15625        0.592592        0.7408210000000001        0        
C1        C        0.1875        0.018519        0.7408210000000001        0        
C2        C        0.21875        0.074075        0.7408210000000001        0        
C3        C        0.1875        0.092592        0.7408210000000001        0        
C4        C        0.21875        0.037037        0.7408210000000001        0        
C1        C        0.1875        0.12963        0.7408210000000001        0        
C2        C        0.21875        0.185185        0.7408210000000001        0        
C3        C        0.1875        0.203703        0.7408210000000001        0        
C4        C        0.21875        0.148148        0.7408210000000001        0        
C1        C        0.1875        0.24074099999999998        0.7408210000000001        0        
C2        C        0.21875        0.296297        0.7408210000000001        0        
C3        C        0.1875        0.314815        0.7408210000000001        0        
C4        C        0.21875        0.259259        0.7408210000000001        0        
C1        C        0.1875        0.351852        0.7408210000000001        0        
C2        C        0.21875        0.407408        0.7408210000000001        0        
C3        C        0.1875        0.42592500000000005        0.7408210000000001        0        
C4        C        0.21875        0.37037        0.7408210000000001        0        
C1        C        0.1875        0.46296300000000007        0.7408210000000001        0        
C2        C        0.21875        0.518519        0.7408210000000001        0        
C3        C        0.1875        0.537037        0.7408210000000001        0        
C4        C        0.21875        0.481481        0.7408210000000001        0        
C1        C        0.1875        0.574075        0.7408210000000001        0        
C2        C        0.21875        0.62963        0.7408210000000001        0        
C3        C        0.1875        0.648148        0.7408210000000001        0        
C4        C        0.21875        0.592592        0.7408210000000001        0        
C1        C        0.25        0.018519        0.7408210000000001        0        
C2        C        0.28125        0.074075        0.7408210000000001        0        
C3        C        0.25        0.092592        0.7408210000000001        0        
C4        C        0.28125        0.037037        0.7408210000000001        0        
C1        C        0.25        0.12963        0.7408210000000001        0        
C2        C        0.28125        0.185185        0.7408210000000001        0        
C3        C        0.25        0.203703        0.7408210000000001        0        
C4        C        0.28125        0.148148        0.7408210000000001        0        
C1        C        0.25        0.24074099999999998        0.7408210000000001        0        
C2        C        0.28125        0.296297        0.7408210000000001        0        
C3        C        0.25        0.314815        0.7408210000000001        0        
C4        C        0.28125        0.259259        0.7408210000000001        0        
C1        C        0.25        0.351852        0.7408210000000001        0        
C2        C        0.28125        0.407408        0.7408210000000001        0        
C3        C        0.25        0.42592500000000005        0.7408210000000001        0        
C4        C        0.28125        0.37037        0.7408210000000001        0        
C1        C        0.25        0.46296300000000007        0.7408210000000001        0        
C2        C        0.28125        0.518519        0.7408210000000001        0        
C3        C        0.25        0.537037        0.7408210000000001        0        
C4        C        0.28125        0.481481        0.7408210000000001        0        
C1        C        0.25        0.574075        0.7408210000000001        0        
C2        C        0.28125        0.62963        0.7408210000000001        0        
C3        C        0.25        0.648148        0.7408210000000001        0        
C4        C        0.28125        0.592592        0.7408210000000001        0        
C1        C        0.3125        0.018519        0.7408210000000001        0        
C2        C        0.34375        0.074075        0.7408210000000001        0        
C3        C        0.3125        0.092592        0.7408210000000001        0        
C4        C        0.34375        0.037037        0.7408210000000001        0        
C1        C        0.3125        0.12963        0.7408210000000001        0        
C2        C        0.34375        0.185185        0.7408210000000001        0        
C3        C        0.3125        0.203703        0.7408210000000001        0        
C4        C        0.34375        0.148148        0.7408210000000001        0        
C1        C        0.3125        0.24074099999999998        0.7408210000000001        0        
C2        C        0.34375        0.296297        0.7408210000000001        0        
C3        C        0.3125        0.314815        0.7408210000000001        0        
C4        C        0.34375        0.259259        0.7408210000000001        0        
C1        C        0.3125        0.351852        0.7408210000000001        0        
C2        C        0.34375        0.407408        0.7408210000000001        0        
C3        C        0.3125        0.42592500000000005        0.7408210000000001        0        
C4        C        0.34375        0.37037        0.7408210000000001        0        
C1        C        0.3125        0.46296300000000007        0.7408210000000001        0        
C2        C        0.34375        0.518519        0.7408210000000001        0        
C3        C        0.3125        0.537037        0.7408210000000001        0        
C4        C        0.34375        0.481481        0.7408210000000001        0        
C1        C        0.3125        0.574075        0.7408210000000001        0        
C2        C        0.34375        0.62963        0.7408210000000001        0        
C3        C        0.3125        0.648148        0.7408210000000001        0        
C4        C        0.34375        0.592592        0.7408210000000001        0        
C1        C        0.375        0.018519        0.7408210000000001        0        
C2        C        0.40625        0.074075        0.7408210000000001        0        
C3        C        0.375        0.092592        0.7408210000000001        0        
C4        C        0.40625        0.037037        0.7408210000000001        0        
C1        C        0.375        0.12963        0.7408210000000001        0        
C2        C        0.40625        0.185185        0.7408210000000001        0        
C3        C        0.375        0.203703        0.7408210000000001        0        
C4        C        0.40625        0.148148        0.7408210000000001        0        
C1        C        0.375        0.24074099999999998        0.7408210000000001        0        
C2        C        0.40625        0.296297        0.7408210000000001        0        
C3        C        0.375        0.314815        0.7408210000000001        0        
C4        C        0.40625        0.259259        0.7408210000000001        0        
C1        C        0.375        0.351852        0.7408210000000001        0        
C2        C        0.40625        0.407408        0.7408210000000001        0        
C3        C        0.375        0.42592500000000005        0.7408210000000001        0        
C4        C        0.40625        0.37037        0.7408210000000001        0        
C1        C        0.375        0.46296300000000007        0.7408210000000001        0        
C2        C        0.40625        0.518519        0.7408210000000001        0        
C3        C        0.375        0.537037        0.7408210000000001        0        
C4        C        0.40625        0.481481        0.7408210000000001        0        
C1        C        0.375        0.574075        0.7408210000000001        0        
C2        C        0.40625        0.62963        0.7408210000000001        0        
C3        C        0.375        0.648148        0.7408210000000001        0        
C4        C        0.40625        0.592592        0.7408210000000001        0        
C1        C        0.4375        0.018519        0.7408210000000001        0        
C2        C        0.46875        0.074075        0.7408210000000001        0        
C3        C        0.4375        0.092592        0.7408210000000001        0        
C4        C        0.46875        0.037037        0.7408210000000001        0        
C1        C        0.4375        0.12963        0.7408210000000001        0        
C2        C        0.46875        0.185185        0.7408210000000001        0        
C3        C        0.4375        0.203703        0.7408210000000001        0        
C4        C        0.46875        0.148148        0.7408210000000001        0        
C1        C        0.4375        0.24074099999999998        0.7408210000000001        0        
C2        C        0.46875        0.296297        0.7408210000000001        0        
C3        C        0.4375        0.314815        0.7408210000000001        0        
C4        C        0.46875        0.259259        0.7408210000000001        0        
C1        C        0.4375        0.351852        0.7408210000000001        0        
C2        C        0.46875        0.407408        0.7408210000000001        0        
C3        C        0.4375        0.42592500000000005        0.7408210000000001        0        
C4        C        0.46875        0.37037        0.7408210000000001        0        
C1        C        0.4375        0.46296300000000007        0.7408210000000001        0        
C2        C        0.46875        0.518519        0.7408210000000001        0        
C3        C        0.4375        0.537037        0.7408210000000001        0        
C4        C        0.46875        0.481481        0.7408210000000001        0        
C1        C        0.4375        0.574075        0.7408210000000001        0        
C2        C        0.46875        0.62963        0.7408210000000001        0        
C3        C        0.4375        0.648148        0.7408210000000001        0        
C4        C        0.46875        0.592592        0.7408210000000001        0        
C1        C        0.5        0.018519        0.7408210000000001        0        
C2        C        0.53125        0.074075        0.7408210000000001        0        
C3        C        0.5        0.092592        0.7408210000000001        0        
C4        C        0.53125        0.037037        0.7408210000000001        0        
C1        C        0.5        0.12963        0.7408210000000001        0        
C2        C        0.53125        0.185185        0.7408210000000001        0        
C3        C        0.5        0.203703        0.7408210000000001        0        
C4        C        0.53125        0.148148        0.7408210000000001        0        
C1        C        0.5        0.24074099999999998        0.7408210000000001        0        
C2        C        0.53125        0.296297        0.7408210000000001        0        
C3        C        0.5        0.314815        0.7408210000000001        0        
C4        C        0.53125        0.259259        0.7408210000000001        0        
C1        C        0.5        0.351852        0.7408210000000001        0        
C2        C        0.53125        0.407408        0.7408210000000001        0        
C3        C        0.5        0.42592500000000005        0.7408210000000001        0        
C4        C        0.53125        0.37037        0.7408210000000001        0        
C1        C        0.5        0.46296300000000007        0.7408210000000001        0        
C2        C        0.53125        0.518519        0.7408210000000001        0        
C3        C        0.5        0.537037        0.7408210000000001        0        
C4        C        0.53125        0.481481        0.7408210000000001        0        
C1        C        0.5        0.574075        0.7408210000000001        0        
C2        C        0.53125        0.62963        0.7408210000000001        0        
C3        C        0.5        0.648148        0.7408210000000001        0        
C4        C        0.53125        0.592592        0.7408210000000001        0        
C1        C        0.5625        0.018519        0.7408210000000001        0        
C2        C        0.59375        0.074075        0.7408210000000001        0        
C3        C        0.5625        0.092592        0.7408210000000001        0        
C4        C        0.59375        0.037037        0.7408210000000001        0        
C1        C        0.5625        0.12963        0.7408210000000001        0        
C2        C        0.59375        0.185185        0.7408210000000001        0        
C3        C        0.5625        0.203703        0.7408210000000001        0        
C4        C        0.59375        0.148148        0.7408210000000001        0        
C1        C        0.5625        0.24074099999999998        0.7408210000000001        0        
C2        C        0.59375        0.296297        0.7408210000000001        0        
C3        C        0.5625        0.314815        0.7408210000000001        0        
C4        C        0.59375        0.259259        0.7408210000000001        0        
C1        C        0.5625        0.351852        0.7408210000000001        0        
C2        C        0.59375        0.407408        0.7408210000000001        0        
C3        C        0.5625        0.42592500000000005        0.7408210000000001        0        
C4        C        0.59375        0.37037        0.7408210000000001        0        
C1        C        0.5625        0.46296300000000007        0.7408210000000001        0        
C2        C        0.59375        0.518519        0.7408210000000001        0        
C3        C        0.5625        0.537037        0.7408210000000001        0        
C4        C        0.59375        0.481481        0.7408210000000001        0        
C1        C        0.5625        0.574075        0.7408210000000001        0        
C2        C        0.59375        0.62963        0.7408210000000001        0        
C3        C        0.5625        0.648148        0.7408210000000001        0        
C4        C        0.59375        0.592592        0.7408210000000001        0        
C1        C        0.625        0.018519        0.7408210000000001        0        
C2        C        0.65625        0.074075        0.7408210000000001        0        
C3        C        0.625        0.092592        0.7408210000000001        0        
C4        C        0.65625        0.037037        0.7408210000000001        0        
C1        C        0.625        0.12963        0.7408210000000001        0        
C2        C        0.65625        0.185185        0.7408210000000001        0        
C3        C        0.625        0.203703        0.7408210000000001        0        
C4        C        0.65625        0.148148        0.7408210000000001        0        
C1        C        0.625        0.24074099999999998        0.7408210000000001        0        
C2        C        0.65625        0.296297        0.7408210000000001        0        
C3        C        0.625        0.314815        0.7408210000000001        0        
C4        C        0.65625        0.259259        0.7408210000000001        0        
C1        C        0.625        0.351852        0.7408210000000001        0        
C2        C        0.65625        0.407408        0.7408210000000001        0        
C3        C        0.625        0.42592500000000005        0.7408210000000001        0        
C4        C        0.65625        0.37037        0.7408210000000001        0        
C1        C        0.625        0.46296300000000007        0.7408210000000001        0        
C2        C        0.65625        0.518519        0.7408210000000001        0        
C3        C        0.625        0.537037        0.7408210000000001        0        
C4        C        0.65625        0.481481        0.7408210000000001        0        
C1        C        0.625        0.574075        0.7408210000000001        0        
C2        C        0.65625        0.62963        0.7408210000000001        0        
C3        C        0.625        0.648148        0.7408210000000001        0        
C4        C        0.65625        0.592592        0.7408210000000001        0        
C1        C        0.6875        0.018519        0.7408210000000001        0        
C2        C        0.71875        0.074075        0.7408210000000001        0        
C3        C        0.6875        0.092592        0.7408210000000001        0        
C4        C        0.71875        0.037037        0.7408210000000001        0        
C1        C        0.6875        0.12963        0.7408210000000001        0        
C2        C        0.71875        0.185185        0.7408210000000001        0        
C3        C        0.6875        0.203703        0.7408210000000001        0        
C4        C        0.71875        0.148148        0.7408210000000001        0        
C1        C        0.6875        0.24074099999999998        0.7408210000000001        0        
C2        C        0.71875        0.296297        0.7408210000000001        0        
C3        C        0.6875        0.314815        0.7408210000000001        0        
C4        C        0.71875        0.259259        0.7408210000000001        0        
C1        C        0.6875        0.351852        0.7408210000000001        0        
C2        C        0.71875        0.407408        0.7408210000000001        0        
C3        C        0.6875        0.42592500000000005        0.7408210000000001        0        
C4        C        0.71875        0.37037        0.7408210000000001        0        
C1        C        0.6875        0.46296300000000007        0.7408210000000001        0        
C2        C        0.71875        0.518519        0.7408210000000001        0        
C3        C        0.6875        0.537037        0.7408210000000001        0        
C4        C        0.71875        0.481481        0.7408210000000001        0        
C1        C        0.6875        0.574075        0.7408210000000001        0        
C2        C        0.71875        0.62963        0.7408210000000001        0        
C3        C        0.6875        0.648148        0.7408210000000001        0        
C4        C        0.71875        0.592592        0.7408210000000001        0        
C1        C        0.75        0.018519        0.7408210000000001        0        
C2        C        0.78125        0.074075        0.7408210000000001        0        
C3        C        0.75        0.092592        0.7408210000000001        0        
C4        C        0.78125        0.037037        0.7408210000000001        0        
C1        C        0.75        0.12963        0.7408210000000001        0        
C2        C        0.78125        0.185185        0.7408210000000001        0        
C3        C        0.75        0.203703        0.7408210000000001        0        
C4        C        0.78125        0.148148        0.7408210000000001        0        
C1        C        0.75        0.24074099999999998        0.7408210000000001        0        
C2        C        0.78125        0.296297        0.7408210000000001        0        
C3        C        0.75        0.314815        0.7408210000000001        0        
C4        C        0.78125        0.259259        0.7408210000000001        0        
C1        C        0.75        0.351852        0.7408210000000001        0        
C2        C        0.78125        0.407408        0.7408210000000001        0        
C3        C        0.75        0.42592500000000005        0.7408210000000001        0        
C4        C        0.78125        0.37037        0.7408210000000001        0        
C1        C        0.75        0.46296300000000007        0.7408210000000001        0        
C2        C        0.78125        0.518519        0.7408210000000001        0        
C3        C        0.75        0.537037        0.7408210000000001        0        
C4        C        0.78125        0.481481        0.7408210000000001        0        
C1        C        0.75        0.574075        0.7408210000000001        0        
C2        C        0.78125        0.62963        0.7408210000000001        0        
C3        C        0.75        0.648148        0.7408210000000001        0        
C4        C        0.78125        0.592592        0.7408210000000001        0        
C1        C        0.8125        0.018519        0.7408210000000001        0        
C2        C        0.84375        0.074075        0.7408210000000001        0        
C3        C        0.8125        0.092592        0.7408210000000001        0        
C4        C        0.84375        0.037037        0.7408210000000001        0        
C1        C        0.8125        0.12963        0.7408210000000001        0        
C2        C        0.84375        0.185185        0.7408210000000001        0        
C3        C        0.8125        0.203703        0.7408210000000001        0        
C4        C        0.84375        0.148148        0.7408210000000001        0        
C1        C        0.8125        0.24074099999999998        0.7408210000000001        0        
C2        C        0.84375        0.296297        0.7408210000000001        0        
C3        C        0.8125        0.314815        0.7408210000000001        0        
C4        C        0.84375        0.259259        0.7408210000000001        0        
C1        C        0.8125        0.351852        0.7408210000000001        0        
C2        C        0.84375        0.407408        0.7408210000000001        0        
C3        C        0.8125        0.42592500000000005        0.7408210000000001        0        
C4        C        0.84375        0.37037        0.7408210000000001        0        
C1        C        0.8125        0.46296300000000007        0.7408210000000001        0        
C2        C        0.84375        0.518519        0.7408210000000001        0        
C3        C        0.8125        0.537037        0.7408210000000001        0        
C4        C        0.84375        0.481481        0.7408210000000001        0        
C1        C        0.8125        0.574075        0.7408210000000001        0        
C2        C        0.84375        0.62963        0.7408210000000001        0        
C3        C        0.8125        0.648148        0.7408210000000001        0        
C4        C        0.84375        0.592592        0.7408210000000001        0        
C1        C        0.875        0.018519        0.7408210000000001        0        
C2        C        0.9062500000000001        0.074075        0.7408210000000001        0        
C3        C        0.875        0.092592        0.7408210000000001        0        
C4        C        0.9062500000000001        0.037037        0.7408210000000001        0        
C1        C        0.875        0.12963        0.7408210000000001        0        
C2        C        0.9062500000000001        0.185185        0.7408210000000001        0        
C3        C        0.875        0.203703        0.7408210000000001        0        
C4        C        0.9062500000000001        0.148148        0.7408210000000001        0        
C1        C        0.875        0.24074099999999998        0.7408210000000001        0        
C2        C        0.9062500000000001        0.296297        0.7408210000000001        0        
C3        C        0.875        0.314815        0.7408210000000001        0        
C4        C        0.9062500000000001        0.259259        0.7408210000000001        0        
C1        C        0.875        0.351852        0.7408210000000001        0        
C2        C        0.9062500000000001        0.407408        0.7408210000000001        0        
C3        C        0.875        0.42592500000000005        0.7408210000000001        0        
C4        C        0.9062500000000001        0.37037        0.7408210000000001        0        
C1        C        0.875        0.46296300000000007        0.7408210000000001        0        
C2        C        0.9062500000000001        0.518519        0.7408210000000001        0        
C3        C        0.875        0.537037        0.7408210000000001        0        
C4        C        0.9062500000000001        0.481481        0.7408210000000001        0        
C1        C        0.875        0.574075        0.7408210000000001        0        
C2        C        0.9062500000000001        0.62963        0.7408210000000001        0        
C3        C        0.875        0.648148        0.7408210000000001        0        
C4        C        0.9062500000000001        0.592592        0.7408210000000001        0        
C1        C        0.9375        0.018519        0.7408210000000001        0        
C2        C        0.9687500000000001        0.074075        0.7408210000000001        0        
C3        C        0.9375        0.092592        0.7408210000000001        0        
C4        C        0.9687500000000001        0.037037        0.7408210000000001        0        
C1        C        0.9375        0.12963        0.7408210000000001        0        
C2        C        0.9687500000000001        0.185185        0.7408210000000001        0        
C3        C        0.9375        0.203703        0.7408210000000001        0        
C4        C        0.9687500000000001        0.148148        0.7408210000000001        0        
C1        C        0.9375        0.24074099999999998        0.7408210000000001        0        
C2        C        0.9687500000000001        0.296297        0.7408210000000001        0        
C3        C        0.9375        0.314815        0.7408210000000001        0        
C4        C        0.9687500000000001        0.259259        0.7408210000000001        0        
C1        C        0.9375        0.351852        0.7408210000000001        0        
C2        C        0.9687500000000001        0.407408        0.7408210000000001        0        
C3        C        0.9375        0.42592500000000005        0.7408210000000001        0        
C4        C        0.9687500000000001        0.37037        0.7408210000000001        0        
C1        C        0.9375        0.46296300000000007        0.7408210000000001        0        
C2        C        0.9687500000000001        0.518519        0.7408210000000001        0        
C3        C        0.9375        0.537037        0.7408210000000001        0        
C4        C        0.9687500000000001        0.481481        0.7408210000000001        0        
C1        C        0.9375        0.574075        0.7408210000000001        0        
C2        C        0.9687500000000001        0.62963        0.7408210000000001        0        
C3        C        0.9375        0.648148        0.7408210000000001        0        
C4        C        0.9687500000000001        0.592592        0.7408210000000001        0        
C1        C        0.0        0.685186        0.7408210000000001        0        
C1        C        0.0625        0.685186        0.7408210000000001        0        
C1        C        0.125        0.685186        0.7408210000000001        0        
C1        C        0.1875        0.685186        0.7408210000000001        0        
C1        C        0.25        0.685186        0.7408210000000001        0        
C1        C        0.3125        0.685186        0.7408210000000001        0        
C1        C        0.375        0.685186        0.7408210000000001        0        
C1        C        0.4375        0.685186        0.7408210000000001        0        
C1        C        0.5        0.685186        0.7408210000000001        0        
C1        C        0.5625        0.685186        0.7408210000000001        0        
C1        C        0.625        0.685186        0.7408210000000001        0        
C1        C        0.6875        0.685186        0.7408210000000001        0        
C1        C        0.75        0.685186        0.7408210000000001        0        
C1        C        0.8125        0.685186        0.7408210000000001        0        
C1        C        0.875        0.685186        0.7408210000000001        0        
C1        C        0.9375        0.685186        0.7408210000000001        0        
C2        C        0.03125        0.740741        0.7408210000000001        0        
C2        C        0.09375        0.740741        0.7408210000000001        0        
C2        C        0.15625        0.740741        0.7408210000000001        0        
C2        C        0.21875        0.740741        0.7408210000000001        0        
C2        C        0.28125        0.740741        0.7408210000000001        0        
C2        C        0.34375        0.740741        0.7408210000000001        0        
C2        C        0.40625        0.740741        0.7408210000000001        0        
C2        C        0.46875        0.740741        0.7408210000000001        0        
C2        C        0.53125        0.740741        0.7408210000000001        0        
C2        C        0.59375        0.740741        0.7408210000000001        0        
C2        C        0.65625        0.740741        0.7408210000000001        0        
C2        C        0.71875        0.740741        0.7408210000000001        0        
C2        C        0.78125        0.740741        0.7408210000000001        0        
C2        C        0.84375        0.740741        0.7408210000000001        0        
C2        C        0.9062500000000001        0.740741        0.7408210000000001        0        
C2        C        0.9687500000000001        0.740741        0.7408210000000001        0        
C3        C        0.0        0.759259        0.7408210000000001        0        
C3        C        0.0625        0.759259        0.7408210000000001        0        
C3        C        0.125        0.759259        0.7408210000000001        0        
C3        C        0.1875        0.759259        0.7408210000000001        0        
C3        C        0.25        0.759259        0.7408210000000001        0        
C3        C        0.3125        0.759259        0.7408210000000001        0        
C3        C        0.375        0.759259        0.7408210000000001        0        
C3        C        0.4375        0.759259        0.7408210000000001        0        
C3        C        0.5        0.759259        0.7408210000000001        0        
C3        C        0.5625        0.759259        0.7408210000000001        0        
C3        C        0.625        0.759259        0.7408210000000001        0        
C3        C        0.6875        0.759259        0.7408210000000001        0        
C3        C        0.75        0.759259        0.7408210000000001        0        
C3        C        0.8125        0.759259        0.7408210000000001        0        
C3        C        0.875        0.759259        0.7408210000000001        0        
C3        C        0.9375        0.759259        0.7408210000000001        0        
C4        C        0.03125        0.703703        0.7408210000000001        0        
C4        C        0.09375        0.703703        0.7408210000000001        0        
C4        C        0.15625        0.703703        0.7408210000000001        0        
C4        C        0.21875        0.703703        0.7408210000000001        0        
C4        C        0.28125        0.703703        0.7408210000000001        0        
C4        C        0.34375        0.703703        0.7408210000000001        0        
C4        C        0.40625        0.703703        0.7408210000000001        0        
C4        C        0.46875        0.703703        0.7408210000000001        0        
C4        C        0.53125        0.703703        0.7408210000000001        0        
C4        C        0.59375        0.703703        0.7408210000000001        0        
C4        C        0.65625        0.703703        0.7408210000000001        0        
C4        C        0.71875        0.703703        0.7408210000000001        0        
C4        C        0.78125        0.703703        0.7408210000000001        0        
C4        C        0.84375        0.703703        0.7408210000000001        0        
C4        C        0.9062500000000001        0.703703        0.7408210000000001        0        
C4        C        0.9687500000000001        0.703703        0.7408210000000001        0        
C1        C        0.0        0.796297        0.7408210000000001        0        
C1        C        0.0625        0.796297        0.7408210000000001        0        
C1        C        0.125        0.796297        0.7408210000000001        0        
C1        C        0.1875        0.796297        0.7408210000000001        0        
C1        C        0.25        0.796297        0.7408210000000001        0        
C1        C        0.3125        0.796297        0.7408210000000001        0        
C1        C        0.375        0.796297        0.7408210000000001        0        
C1        C        0.4375        0.796297        0.7408210000000001        0        
C1        C        0.5        0.796297        0.7408210000000001        0        
C1        C        0.5625        0.796297        0.7408210000000001        0        
C1        C        0.625        0.796297        0.7408210000000001        0        
C1        C        0.6875        0.796297        0.7408210000000001        0        
C1        C        0.75        0.796297        0.7408210000000001        0        
C1        C        0.8125        0.796297        0.7408210000000001        0        
C1        C        0.875        0.796297        0.7408210000000001        0        
C1        C        0.9375        0.796297        0.7408210000000001        0        
C2        C        0.03125        0.851852        0.7408210000000001        0        
C2        C        0.09375        0.851852        0.7408210000000001        0        
C2        C        0.15625        0.851852        0.7408210000000001        0        
C2        C        0.21875        0.851852        0.7408210000000001        0        
C2        C        0.28125        0.851852        0.7408210000000001        0        
C2        C        0.34375        0.851852        0.7408210000000001        0        
C2        C        0.40625        0.851852        0.7408210000000001        0        
C2        C        0.46875        0.851852        0.7408210000000001        0        
C2        C        0.53125        0.851852        0.7408210000000001        0        
C2        C        0.59375        0.851852        0.7408210000000001        0        
C2        C        0.65625        0.851852        0.7408210000000001        0        
C2        C        0.71875        0.851852        0.7408210000000001        0        
C2        C        0.78125        0.851852        0.7408210000000001        0        
C2        C        0.84375        0.851852        0.7408210000000001        0        
C2        C        0.9062500000000001        0.851852        0.7408210000000001        0        
C2        C        0.9687500000000001        0.851852        0.7408210000000001        0        
C3        C        0.0        0.87037        0.7408210000000001        0        
C3        C        0.0625        0.87037        0.7408210000000001        0        
C3        C        0.125        0.87037        0.7408210000000001        0        
C3        C        0.1875        0.87037        0.7408210000000001        0        
C3        C        0.25        0.87037        0.7408210000000001        0        
C3        C        0.3125        0.87037        0.7408210000000001        0        
C3        C        0.375        0.87037        0.7408210000000001        0        
C3        C        0.4375        0.87037        0.7408210000000001        0        
C3        C        0.5        0.87037        0.7408210000000001        0        
C3        C        0.5625        0.87037        0.7408210000000001        0        
C3        C        0.625        0.87037        0.7408210000000001        0        
C3        C        0.6875        0.87037        0.7408210000000001        0        
C3        C        0.75        0.87037        0.7408210000000001        0        
C3        C        0.8125        0.87037        0.7408210000000001        0        
C3        C        0.875        0.87037        0.7408210000000001        0        
C3        C        0.9375        0.87037        0.7408210000000001        0        
C4        C        0.03125        0.814814        0.7408210000000001        0        
C4        C        0.09375        0.814814        0.7408210000000001        0        
C4        C        0.15625        0.814814        0.7408210000000001        0        
C4        C        0.21875        0.814814        0.7408210000000001        0        
C4        C        0.28125        0.814814        0.7408210000000001        0        
C4        C        0.34375        0.814814        0.7408210000000001        0        
C4        C        0.40625        0.814814        0.7408210000000001        0        
C4        C        0.46875        0.814814        0.7408210000000001        0        
C4        C        0.53125        0.814814        0.7408210000000001        0        
C4        C        0.59375        0.814814        0.7408210000000001        0        
C4        C        0.65625        0.814814        0.7408210000000001        0        
C4        C        0.71875        0.814814        0.7408210000000001        0        
C4        C        0.78125        0.814814        0.7408210000000001        0        
C4        C        0.84375        0.814814        0.7408210000000001        0        
C4        C        0.9062500000000001        0.814814        0.7408210000000001        0        
C4        C        0.9687500000000001        0.814814        0.7408210000000001        0        
C1        C        0.0        0.907408        0.7408210000000001        0        
C1        C        0.0625        0.907408        0.7408210000000001        0        
C1        C        0.125        0.907408        0.7408210000000001        0        
C1        C        0.1875        0.907408        0.7408210000000001        0        
C1        C        0.25        0.907408        0.7408210000000001        0        
C1        C        0.3125        0.907408        0.7408210000000001        0        
C1        C        0.375        0.907408        0.7408210000000001        0        
C1        C        0.4375        0.907408        0.7408210000000001        0        
C1        C        0.5        0.907408        0.7408210000000001        0        
C1        C        0.5625        0.907408        0.7408210000000001        0        
C1        C        0.625        0.907408        0.7408210000000001        0        
C1        C        0.6875        0.907408        0.7408210000000001        0        
C1        C        0.75        0.907408        0.7408210000000001        0        
C1        C        0.8125        0.907408        0.7408210000000001        0        
C1        C        0.875        0.907408        0.7408210000000001        0        
C1        C        0.9375        0.907408        0.7408210000000001        0        
C2        C        0.03125        0.962963        0.7408210000000001        0        
C2        C        0.09375        0.962963        0.7408210000000001        0        
C2        C        0.15625        0.962963        0.7408210000000001        0        
C2        C        0.21875        0.962963        0.7408210000000001        0        
C2        C        0.28125        0.962963        0.7408210000000001        0        
C2        C        0.34375        0.962963        0.7408210000000001        0        
C2        C        0.40625        0.962963        0.7408210000000001        0        
C2        C        0.46875        0.962963        0.7408210000000001        0        
C2        C        0.53125        0.962963        0.7408210000000001        0        
C2        C        0.59375        0.962963        0.7408210000000001        0        
C2        C        0.65625        0.962963        0.7408210000000001        0        
C2        C        0.71875        0.962963        0.7408210000000001        0        
C2        C        0.78125        0.962963        0.7408210000000001        0        
C2        C        0.84375        0.962963        0.7408210000000001        0        
C2        C        0.9062500000000001        0.962963        0.7408210000000001        0        
C2        C        0.9687500000000001        0.962963        0.7408210000000001        0        
C3        C        0.0        0.9814809999999999        0.7408210000000001        0        
C3        C        0.0625        0.9814809999999999        0.7408210000000001        0        
C3        C        0.125        0.9814809999999999        0.7408210000000001        0        
C3        C        0.1875        0.9814809999999999        0.7408210000000001        0        
C3        C        0.25        0.9814809999999999        0.7408210000000001        0        
C3        C        0.3125        0.9814809999999999        0.7408210000000001        0        
C3        C        0.375        0.9814809999999999        0.7408210000000001        0        
C3        C        0.4375        0.9814809999999999        0.7408210000000001        0        
C3        C        0.5        0.9814809999999999        0.7408210000000001        0        
C3        C        0.5625        0.9814809999999999        0.7408210000000001        0        
C3        C        0.625        0.9814809999999999        0.7408210000000001        0        
C3        C        0.6875        0.9814809999999999        0.7408210000000001        0        
C3        C        0.75        0.9814809999999999        0.7408210000000001        0        
C3        C        0.8125        0.9814809999999999        0.7408210000000001        0        
C3        C        0.875        0.9814809999999999        0.7408210000000001        0        
C3        C        0.9375        0.9814809999999999        0.7408210000000001        0        
C4        C        0.03125        0.925925        0.7408210000000001        0        
C4        C        0.09375        0.925925        0.7408210000000001        0        
C4        C        0.15625        0.925925        0.7408210000000001        0        
C4        C        0.21875        0.925925        0.7408210000000001        0        
C4        C        0.28125        0.925925        0.7408210000000001        0        
C4        C        0.34375        0.925925        0.7408210000000001        0        
C4        C        0.40625        0.925925        0.7408210000000001        0        
C4        C        0.46875        0.925925        0.7408210000000001        0        
C4        C        0.53125        0.925925        0.7408210000000001        0        
C4        C        0.59375        0.925925        0.7408210000000001        0        
C4        C        0.65625        0.925925        0.7408210000000001        0        
C4        C        0.71875        0.925925        0.7408210000000001        0        
C4        C        0.78125        0.925925        0.7408210000000001        0        
C4        C        0.84375        0.925925        0.7408210000000001        0        
C4        C        0.9062500000000001        0.925925        0.7408210000000001        0        
C4        C        0.9687500000000001        0.925925        0.7408210000000001        0        
O_OH        O        0.0        0.018519        0.4348380129589633        -0.64        
O_OH        O        0.0        0.12963        0.4348380129589633        -0.64        
O_OH        O        0.0        0.24074099999999998        0.4348380129589633        -0.64        
O_OH        O        0.0        0.351852        0.4348380129589633        -0.64        
O_OH        O        0.0        0.46296300000000007        0.4348380129589633        -0.64        
O_OH        O        0.0        0.574075        0.4348380129589633        -0.64        
O_OH        O        0.125        0.018519        0.4348380129589633        -0.64        
O_OH        O        0.125        0.12963        0.4348380129589633        -0.64        
O_OH        O        0.125        0.24074099999999998        0.4348380129589633        -0.64        
O_OH        O        0.125        0.351852        0.4348380129589633        -0.64        
O_OH        O        0.125        0.46296300000000007        0.4348380129589633        -0.64        
O_OH        O        0.125        0.574075        0.4348380129589633        -0.64        
O_OH        O        0.25        0.018519        0.4348380129589633        -0.64        
O_OH        O        0.25        0.12963        0.4348380129589633        -0.64        
O_OH        O        0.25        0.24074099999999998        0.4348380129589633        -0.64        
O_OH        O        0.25        0.351852        0.4348380129589633        -0.64        
O_OH        O        0.25        0.46296300000000007        0.4348380129589633        -0.64        
O_OH        O        0.25        0.574075        0.4348380129589633        -0.64        
O_OH        O        0.375        0.018519        0.4348380129589633        -0.64        
O_OH        O        0.375        0.12963        0.4348380129589633        -0.64        
O_OH        O        0.375        0.24074099999999998        0.4348380129589633        -0.64        
O_OH        O        0.375        0.351852        0.4348380129589633        -0.64        
O_OH        O        0.375        0.46296300000000007        0.4348380129589633        -0.64        
O_OH        O        0.375        0.574075        0.4348380129589633        -0.64        
O_OH        O        0.5        0.018519        0.4348380129589633        -0.64        
O_OH        O        0.5        0.12963        0.4348380129589633        -0.64        
O_OH        O        0.5        0.24074099999999998        0.4348380129589633        -0.64        
O_OH        O        0.5        0.351852        0.4348380129589633        -0.64        
O_OH        O        0.5        0.46296300000000007        0.4348380129589633        -0.64        
O_OH        O        0.5        0.574075        0.4348380129589633        -0.64        
O_OH        O        0.625        0.018519        0.4348380129589633        -0.64        
O_OH        O        0.625        0.12963        0.4348380129589633        -0.64        
O_OH        O        0.625        0.24074099999999998        0.4348380129589633        -0.64        
O_OH        O        0.625        0.351852        0.4348380129589633        -0.64        
O_OH        O        0.625        0.46296300000000007        0.4348380129589633        -0.64        
O_OH        O        0.625        0.574075        0.4348380129589633        -0.64        
O_OH        O        0.75        0.018519        0.4348380129589633        -0.64        
O_OH        O        0.75        0.12963        0.4348380129589633        -0.64        
O_OH        O        0.75        0.24074099999999998        0.4348380129589633        -0.64        
O_OH        O        0.75        0.351852        0.4348380129589633        -0.64        
O_OH        O        0.75        0.46296300000000007        0.4348380129589633        -0.64        
O_OH        O        0.75        0.574075        0.4348380129589633        -0.64        
O_OH        O        0.875        0.018519        0.4348380129589633        -0.64        
O_OH        O        0.875        0.12963        0.4348380129589633        -0.64        
O_OH        O        0.875        0.24074099999999998        0.4348380129589633        -0.64        
O_OH        O        0.875        0.351852        0.4348380129589633        -0.64        
O_OH        O        0.875        0.46296300000000007        0.4348380129589633        -0.64        
O_OH        O        0.875        0.574075        0.4348380129589633        -0.64        
O_OH        O        0.0        0.685186        0.4348380129589633        -0.64        
O_OH        O        0.125        0.685186        0.4348380129589633        -0.64        
O_OH        O        0.25        0.685186        0.4348380129589633        -0.64        
O_OH        O        0.375        0.685186        0.4348380129589633        -0.64        
O_OH        O        0.5        0.685186        0.4348380129589633        -0.64        
O_OH        O        0.625        0.685186        0.4348380129589633        -0.64        
O_OH        O        0.75        0.685186        0.4348380129589633        -0.64        
O_OH        O        0.875        0.685186        0.4348380129589633        -0.64        
O_OH        O        0.0        0.796297        0.4348380129589633        -0.64        
O_OH        O        0.125        0.796297        0.4348380129589633        -0.64        
O_OH        O        0.25        0.796297        0.4348380129589633        -0.64        
O_OH        O        0.375        0.796297        0.4348380129589633        -0.64        
O_OH        O        0.5        0.796297        0.4348380129589633        -0.64        
O_OH        O        0.625        0.796297        0.4348380129589633        -0.64        
O_OH        O        0.75        0.796297        0.4348380129589633        -0.64        
O_OH        O        0.875        0.796297        0.4348380129589633        -0.64        
O_OH        O        0.0        0.907408        0.4348380129589633        -0.64        
O_OH        O        0.125        0.907408        0.4348380129589633        -0.64        
O_OH        O        0.25        0.907408        0.4348380129589633        -0.64        
O_OH        O        0.375        0.907408        0.4348380129589633        -0.64        
O_OH        O        0.5        0.907408        0.4348380129589633        -0.64        
O_OH        O        0.625        0.907408        0.4348380129589633        -0.64        
O_OH        O        0.75        0.907408        0.4348380129589633        -0.64        
O_OH        O        0.875        0.907408        0.4348380129589633        -0.64        
O_OH        O        0.0        0.018519        0.5651619870410368        -0.64        
O_OH        O        0.0        0.12963        0.5651619870410368        -0.64        
O_OH        O        0.0        0.24074099999999998        0.5651619870410368        -0.64        
O_OH        O        0.0        0.351852        0.5651619870410368        -0.64        
O_OH        O        0.0        0.46296300000000007        0.5651619870410368        -0.64        
O_OH        O        0.0        0.574075        0.5651619870410368        -0.64        
O_OH        O        0.125        0.018519        0.5651619870410368        -0.64        
O_OH        O        0.125        0.12963        0.5651619870410368        -0.64        
O_OH        O        0.125        0.24074099999999998        0.5651619870410368        -0.64        
O_OH        O        0.125        0.351852        0.5651619870410368        -0.64        
O_OH        O        0.125        0.46296300000000007        0.5651619870410368        -0.64        
O_OH        O        0.125        0.574075        0.5651619870410368        -0.64        
O_OH        O        0.25        0.018519        0.5651619870410368        -0.64        
O_OH        O        0.25        0.12963        0.5651619870410368        -0.64        
O_OH        O        0.25        0.24074099999999998        0.5651619870410368        -0.64        
O_OH        O        0.25        0.351852        0.5651619870410368        -0.64        
O_OH        O        0.25        0.46296300000000007        0.5651619870410368        -0.64        
O_OH        O        0.25        0.574075        0.5651619870410368        -0.64        
O_OH        O        0.375        0.018519        0.5651619870410368        -0.64        
O_OH        O        0.375        0.12963        0.5651619870410368        -0.64        
O_OH        O        0.375        0.24074099999999998        0.5651619870410368        -0.64        
O_OH        O        0.375        0.351852        0.5651619870410368        -0.64        
O_OH        O        0.375        0.46296300000000007        0.5651619870410368        -0.64        
O_OH        O        0.375        0.574075        0.5651619870410368        -0.64        
O_OH        O        0.5        0.018519        0.5651619870410368        -0.64        
O_OH        O        0.5        0.12963        0.5651619870410368        -0.64        
O_OH        O        0.5        0.24074099999999998        0.5651619870410368        -0.64        
O_OH        O        0.5        0.351852        0.5651619870410368        -0.64        
O_OH        O        0.5        0.46296300000000007        0.5651619870410368        -0.64        
O_OH        O        0.5        0.574075        0.5651619870410368        -0.64        
O_OH        O        0.625        0.018519        0.5651619870410368        -0.64        
O_OH        O        0.625        0.12963        0.5651619870410368        -0.64        
O_OH        O        0.625        0.24074099999999998        0.5651619870410368        -0.64        
O_OH        O        0.625        0.351852        0.5651619870410368        -0.64        
O_OH        O        0.625        0.46296300000000007        0.5651619870410368        -0.64        
O_OH        O        0.625        0.574075        0.5651619870410368        -0.64        
O_OH        O        0.75        0.018519        0.5651619870410368        -0.64        
O_OH        O        0.75        0.12963        0.5651619870410368        -0.64        
O_OH        O        0.75        0.24074099999999998        0.5651619870410368        -0.64        
O_OH        O        0.75        0.351852        0.5651619870410368        -0.64        
O_OH        O        0.75        0.46296300000000007        0.5651619870410368        -0.64        
O_OH        O        0.75        0.574075        0.5651619870410368        -0.64        
O_OH        O        0.875        0.018519        0.5651619870410368        -0.64        
O_OH        O        0.875        0.12963        0.5651619870410368        -0.64        
O_OH        O        0.875        0.24074099999999998        0.5651619870410368        -0.64        
O_OH        O        0.875        0.351852        0.5651619870410368        -0.64        
O_OH        O        0.875        0.46296300000000007        0.5651619870410368        -0.64        
O_OH        O        0.875        0.574075        0.5651619870410368        -0.64        
O_OH        O        0.0        0.685186        0.5651619870410368        -0.64        
O_OH        O        0.125        0.685186        0.5651619870410368        -0.64        
O_OH        O        0.25        0.685186        0.5651619870410368        -0.64        
O_OH        O        0.375        0.685186        0.5651619870410368        -0.64        
O_OH        O        0.5        0.685186        0.5651619870410368        -0.64        
O_OH        O        0.625        0.685186        0.5651619870410368        -0.64        
O_OH        O        0.75        0.685186        0.5651619870410368        -0.64        
O_OH        O        0.875        0.685186        0.5651619870410368        -0.64        
O_OH        O        0.0        0.796297        0.5651619870410368        -0.64        
O_OH        O        0.125        0.796297        0.5651619870410368        -0.64        
O_OH        O        0.25        0.796297        0.5651619870410368        -0.64        
O_OH        O        0.375        0.796297        0.5651619870410368        -0.64        
O_OH        O        0.5        0.796297        0.5651619870410368        -0.64        
O_OH        O        0.625        0.796297        0.5651619870410368        -0.64        
O_OH        O        0.75        0.796297        0.5651619870410368        -0.64        
O_OH        O        0.875        0.796297        0.5651619870410368        -0.64        
O_OH        O        0.0        0.907408        0.5651619870410368        -0.64        
O_OH        O        0.125        0.907408        0.5651619870410368        -0.64        
O_OH        O        0.25        0.907408        0.5651619870410368        -0.64        
O_OH        O        0.375        0.907408        0.5651619870410368        -0.64        
O_OH        O        0.5        0.907408        0.5651619870410368        -0.64        
O_OH        O        0.625        0.907408        0.5651619870410368        -0.64        
O_OH        O        0.75        0.907408        0.5651619870410368        -0.64        
O_OH        O        0.875        0.907408        0.5651619870410368        -0.64        
H_OH        H        -0.008876741113151617        0.04012963238543374        0.44209933045356375        0.44        
H_OH        H        -0.0029124517779978197        0.1528920859255536        0.44209933045356375        0.44        
H_OH        H        0.012462476015805721        0.26039747945419195        0.44209933045356375        0.44        
H_OH        H        -0.017985345203346003        0.36631406716519194        0.44209933045356375        0.44        
H_OH        H        -0.022708311307674964        0.4655309310970752        0.44209933045356375        0.44        
H_OH        H        -0.010368750669527752        0.5949737274303067        0.44209933045356375        0.44        
H_OH        H        0.14778601863343066        0.020212641508578245        0.44209933045356375        0.44        
H_OH        H        0.11072505926802227        0.1479413014612854        0.44209933045356375        0.44        
H_OH        H        0.14660814810701317        0.24835534807203252        0.44209933045356375        0.44        
H_OH        H        0.14748495503270445        0.35600322966645215        0.44209933045356375        0.44        
H_OH        H        0.13358919572978295        0.48469575087919503        0.44209933045356375        0.44        
H_OH        H        0.14432400294375614        0.5865855610764565        0.44209933045356375        0.44        
H_OH        H        0.24085365303266348        0.04001081978340023        0.44209933045356375        0.44        
H_OH        H        0.2548296944099179        0.15255336720641047        0.44209933045356375        0.44        
H_OH        H        0.26652675195640624        0.2569337322518742        0.44209933045356375        0.44        
H_OH        H        0.2293659272716746        0.3619189701361973        0.44209933045356375        0.44        
H_OH        H        0.22835263936533332        0.470459044879081        0.44209933045356375        0.44        
H_OH        H        0.26985951663592506        0.5856680795217232        0.44209933045356375        0.44        
H_OH        H        0.3783285932334895        0.04172217771188012        0.44209933045356375        0.44        
H_OH        H        0.3685872841040163        0.15214053634905042        0.44209933045356375        0.44        
H_OH        H        0.3679022663025264        0.26303383207517755        0.44209933045356375        0.44        
H_OH        H        0.3738097920463146        0.3752736007139351        0.44209933045356375        0.44        
H_OH        H        0.3853553820713159        0.48386871209872023        0.44209933045356375        0.44        
H_OH        H        0.39557012616451315        0.5842789607955167        0.44209933045356375        0.44        
H_OH        H        0.4828631824746925        0.03402900718280441        0.44209933045356375        0.44        
H_OH        H        0.49283269715962574        0.15189936121828015        0.44209933045356375        0.44        
H_OH        H        0.5004183206688835        0.2641905186505725        0.44209933045356375        0.44        
H_OH        H        0.5223194204154612        0.3568569235463448        0.44209933045356375        0.44        
H_OH        H        0.5122930661754094        0.4827315895120319        0.44209933045356375        0.44        
H_OH        H        0.480658792868932        0.5865575105597972        0.44209933045356375        0.44        
H_OH        H        0.6154399252551149        0.03982021302444876        0.44209933045356375        0.44        
H_OH        H        0.6027401252617443        0.1349070146911997        0.44209933045356375        0.44        
H_OH        H        0.6476283626326191        0.24396811963413098        0.44209933045356375        0.44        
H_OH        H        0.6059973438733591        0.36487099861095557        0.44209933045356375        0.44        
H_OH        H        0.6402537522663785        0.4804227366209035        0.44209933045356375        0.44        
H_OH        H        0.6021628429489014        0.5747149480351534        0.44209933045356375        0.44        
H_OH        H        0.7689784801316167        0.0315751121279692        0.44209933045356375        0.44        
H_OH        H        0.75197722254746        0.15299544807245383        0.44209933045356375        0.44        
H_OH        H        0.7295139689589221        0.2511217316615306        0.44209933045356375        0.44        
H_OH        H        0.740452596811702        0.3731592018811053        0.44209933045356375        0.44        
H_OH        H        0.7452266372277462        0.48589879922635154        0.44209933045356375        0.44        
H_OH        H        0.7382178683949648        0.5941688098365632        0.44209933045356375        0.44        
H_OH        H        0.8642144956755925        0.03919423558087445        0.44209933045356375        0.44        
H_OH        H        0.892316821380803        0.14492784821178162        0.44209933045356375        0.44        
H_OH        H        0.8956688553445361        0.25073248672304915        0.44209933045356375        0.44        
H_OH        H        0.8931864394479258        0.36604655064380576        0.44209933045356375        0.44        
H_OH        H        0.8762266383584694        0.48638261968512303        0.44209933045356375        0.44        
H_OH        H        0.8523662063767627        0.5772617270460718        0.44209933045356375        0.44        
H_OH        H        0.0020864228370618383        0.7085414380630987        0.44209933045356375        0.44        
H_OH        H        0.1400557345368103        0.7028259493201101        0.44209933045356375        0.44        
H_OH        H        0.22801617284369988        0.6915671241814467        0.44209933045356375        0.44        
H_OH        H        0.3783225545336854        0.70839008984873        0.44209933045356375        0.44        
H_OH        H        0.5059901184818134        0.7078189018828851        0.44209933045356375        0.44        
H_OH        H        0.6243274450812792        0.7086292854796096        0.44209933045356375        0.44        
H_OH        H        0.73215265492994        0.6998271376741296        0.44209933045356375        0.44        
H_OH        H        0.8556633985060866        0.6976760284303377        0.44209933045356375        0.44        
H_OH        H        -0.022339032610818668        0.8012088415212373        0.44209933045356375        0.44        
H_OH        H        0.11482625260436571        0.8172964914672657        0.44209933045356375        0.44        
H_OH        H        0.2645098418020846        0.8144126735569707        0.44209933045356375        0.44        
H_OH        H        0.3569810812715032        0.8107149549038233        0.44209933045356375        0.44        
H_OH        H        0.509101292555255        0.817808968308895        0.44209933045356375        0.44        
H_OH        H        0.6327922870562162        0.8183440146337773        0.44209933045356375        0.44        
H_OH        H        0.7390281491653958        0.8168686397510915        0.44209933045356375        0.44        
H_OH        H        0.8972053377592357        0.8018108578523383        0.44209933045356375        0.44        
H_OH        H        -0.002965643937780438        0.9306630019391        0.44209933045356375        0.44        
H_OH        H        0.13614822956991848        0.927879455655768        0.44209933045356375        0.44        
H_OH        H        0.25526975648438277        0.9302289718388881        0.44209933045356375        0.44        
H_OH        H        0.37791507682044106        0.9306697393872148        0.44209933045356375        0.44        
H_OH        H        0.5225281706166591        0.9113044802454222        0.44209933045356375        0.44        
H_OH        H        0.6216537786014796        0.9306085053219431        0.44209933045356375        0.44        
H_OH        H        0.7410698308133054        0.9289954210637186        0.44209933045356375        0.44        
H_OH        H        0.8586307130375221        0.9237684350618769        0.44209933045356375        0.44        
H_OH        H        0.005794534833250466        0.04120550266438515        0.5579006695464364        0.44        
H_OH        H        -0.002834561320408685        0.15290222408520093        0.5579006695464364        0.44        
H_OH        H        0.0008011956122753515        0.2641800236182675        0.5579006695464364        0.44        
H_OH        H        -0.0192856724324432        0.3644247426900377        0.5579006695464364        0.44        
H_OH        H        -0.006301719215471351        0.48550654888192873        0.5579006695464364        0.44        
H_OH        H        -0.007511057637412622        0.5962246421111316        0.5579006695464364        0.44        
H_OH        H        0.1466221683533941        0.026091286210610312        0.5579006695464364        0.44        
H_OH        H        0.10847968383504822        0.1458296521220017        0.5579006695464364        0.44        
H_OH        H        0.14575959735697872        0.25053221134523246        0.5579006695464364        0.44        
H_OH        H        0.14594042661113973        0.36122860268337575        0.5579006695464364        0.44        
H_OH        H        0.13670682996908165        0.48310314188491665        0.5579006695464364        0.44        
H_OH        H        0.14206522279339498        0.5896679802108962        0.5579006695464364        0.44        
H_OH        H        0.2538780413119771        0.041632076279818415        0.5579006695464364        0.44        
H_OH        H        0.2727637737606301        0.13161401138147813        0.5579006695464364        0.44        
H_OH        H        0.2645347594695968        0.2588356092657277        0.5579006695464364        0.44        
H_OH        H        0.26315061171010407        0.37103015480041385        0.5579006695464364        0.44        
H_OH        H        0.24424869508365962        0.48566109330433344        0.5579006695464364        0.44        
H_OH        H        0.2520775842339349        0.5974312684401164        0.5579006695464364        0.44        
H_OH        H        0.3809688940174496        0.041157810843510056        0.5579006695464364        0.44        
H_OH        H        0.38444676231158476        0.15098442592448397        0.5579006695464364        0.44        
H_OH        H        0.35225380975845133        0.2429272459518495        0.5579006695464364        0.44        
H_OH        H        0.35543131878457485        0.3639550933801246        0.5579006695464364        0.44        
H_OH        H        0.39485138146415283        0.4745707545450751        0.5579006695464364        0.44        
H_OH        H        0.3578965125839327        0.5896237326345549        0.5579006695464364        0.44        
H_OH        H        0.4889838586748508        0.039065678480809635        0.5579006695464364        0.44        
H_OH        H        0.5082668764900146        0.15149408983433751        0.5579006695464364        0.44        
H_OH        H        0.5000840322161141        0.264194292089878        0.5579006695464364        0.44        
H_OH        H        0.5225427016021839        0.3556588784160568        0.5579006695464364        0.44        
H_OH        H        0.4772284133134996        0.46485015537345453        0.5579006695464364        0.44        
H_OH        H        0.4816474491179857        0.5880424077365015        0.5579006695464364        0.44        
H_OH        H        0.616663743449865        0.04035530900020016        0.5579006695464364        0.44        
H_OH        H        0.6028587490154184        0.13540909066309453        0.5579006695464364        0.44        
H_OH        H        0.618462672140159        0.26321372815188504        0.5579006695464364        0.44        
H_OH        H        0.6109975590932161        0.37038372404913883        0.5579006695464364        0.44        
H_OH        H        0.6404162759480683        0.4802716408300657        0.5579006695464364        0.44        
H_OH        H        0.6204618507890619        0.5970610646121167        0.5579006695464364        0.44        
H_OH        H        0.7656037218460643        0.03564970279096231        0.5579006695464364        0.44        
H_OH        H        0.7272419498531723        0.13168204733310418        0.5579006695464364        0.44        
H_OH        H        0.7486519722069224        0.26415358632007174        0.5579006695464364        0.44        
H_OH        H        0.7693010910143807        0.36439978180124744        0.5579006695464364        0.44        
H_OH        H        0.7645270241860804        0.48106415482432524        0.5579006695464364        0.44        
H_OH        H        0.7728095909990382        0.575392450776995        0.5579006695464364        0.44        
H_OH        H        0.8654702487811299        0.039834528553085675        0.5579006695464364        0.44        
H_OH        H        0.8971185998740495        0.13549979354364722        0.5579006695464364        0.44        
H_OH        H        0.859070078149977        0.25755230897669074        0.5579006695464364        0.44        
H_OH        H        0.8961501315382829        0.36071868970823223        0.5579006695464364        0.44        
H_OH        H        0.8615883122769791        0.4819496518206031        0.5579006695464364        0.44        
H_OH        H        0.8854776946298986        0.5949163834898191        0.5579006695464364        0.44        
H_OH        H        0.013295434592382221        0.7042586278038224        0.5579006695464364        0.44        
H_OH        H        0.14776620787113723        0.6871403543495505        0.5579006695464364        0.44        
H_OH        H        0.22840618798102033        0.6928430905917944        0.5579006695464364        0.44        
H_OH        H        0.35382032554651377        0.6939780541507269        0.5579006695464364        0.44        
H_OH        H        0.5220311885379644        0.691392588443128        0.5579006695464364        0.44        
H_OH        H        0.6255216975645894        0.7086333348045101        0.5579006695464364        0.44        
H_OH        H        0.7594635235797884        0.7065326029377588        0.5579006695464364        0.44        
H_OH        H        0.8524598528890955        0.6890087864414668        0.5579006695464364        0.44        
H_OH        H        0.0073865131952484675        0.8184907399148408        0.5579006695464364        0.44        
H_OH        H        0.13416655689345816        0.8177797433247472        0.5579006695464364        0.44        
H_OH        H        0.23189763670762106        0.8106043683708404        0.5579006695464364        0.44        
H_OH        H        0.37258673573090845        0.8196192320900006        0.5579006695464364        0.44        
H_OH        H        0.5162560108914183        0.8127760399040433        0.5579006695464364        0.44        
H_OH        H        0.6186525481539584        0.8188270227930167        0.5579006695464364        0.44        
H_OH        H        0.7563134603279779        0.8188370863824207        0.5579006695464364        0.44        
H_OH        H        0.8553838396418937        0.8083188175887664        0.5579006695464364        0.44        
H_OH        H        -0.007900298713684311        0.9294144646308355        0.5579006695464364        0.44        
H_OH        H        0.10811764180821758        0.9232093778680313        0.5579006695464364        0.44        
H_OH        H        0.2727759389702681        0.9092389646596641        0.5579006695464364        0.44        
H_OH        H        0.35238843635418676        0.910756919428656        0.5579006695464364        0.44        
H_OH        H        0.49959257799942963        0.9308577208865061        0.5579006695464364        0.44        
H_OH        H        0.6050696135961631        0.9188721857125806        0.5579006695464364        0.44        
H_OH        H        0.7622711481764083        0.9271909360299263        0.5579006695464364        0.44        
H_OH        H        0.8781703193402698        0.9306345262679334        0.5579006695464364        0.44        
