data_graphite_ortho

_audit_creation_method RASPA-1.0
_audit_creation_date 2012-2-3
_audit_author_name 'David Dubbeldam'

_cell_length_a    29.52    
_cell_length_b    38.34    
_cell_length_c    28.9    
_cell_angle_alpha 90
_cell_angle_beta  90
_cell_angle_gamma 90
_cell_volume      32708.93      

_symmetry_cell_setting          triclinic
_symmetry_space_group_name_Hall 'P 1'
_symmetry_space_group_name_H-M  'P 1'
_symmetry_Int_Tables_number     1

_symmetry_equiv_pos_as_xyz 'x,y,z'

loop_
_atom_site_label
_atom_site_type_symbol
_atom_site_fract_x
_atom_site_fract_y
_atom_site_fract_z
_atom_site_charge
C1        C        0.0        0.018519        0.0        0        
C2        C        0.041667        0.074075        0.0        0        
C3        C        0.0        0.092592        0.0        0        
C4        C        0.041667        0.037037        0.0        0        
C1        C        0.0        0.12963        0.0        0        
C2        C        0.041667        0.185185        0.0        0        
C3        C        0.0        0.203703        0.0        0        
C4        C        0.041667        0.148148        0.0        0        
C1        C        0.0        0.24074099999999998        0.0        0        
C2        C        0.041667        0.296297        0.0        0        
C3        C        0.0        0.314815        0.0        0        
C4        C        0.041667        0.259259        0.0        0        
C1        C        0.0        0.351852        0.0        0        
C2        C        0.041667        0.407408        0.0        0        
C3        C        0.0        0.42592500000000005        0.0        0        
C4        C        0.041667        0.37037        0.0        0        
C1        C        0.0        0.46296300000000007        0.0        0        
C2        C        0.041667        0.518519        0.0        0        
C3        C        0.0        0.537037        0.0        0        
C4        C        0.041667        0.481481        0.0        0        
C1        C        0.0        0.574075        0.0        0        
C2        C        0.041667        0.62963        0.0        0        
C3        C        0.0        0.648148        0.0        0        
C4        C        0.041667        0.592592        0.0        0        
C1        C        0.083333        0.018519        0.0        0        
C2        C        0.125        0.074075        0.0        0        
C3        C        0.083333        0.092592        0.0        0        
C4        C        0.125        0.037037        0.0        0        
C1        C        0.083333        0.12963        0.0        0        
C2        C        0.125        0.185185        0.0        0        
C3        C        0.083333        0.203703        0.0        0        
C4        C        0.125        0.148148        0.0        0        
C1        C        0.083333        0.24074099999999998        0.0        0        
C2        C        0.125        0.296297        0.0        0        
C3        C        0.083333        0.314815        0.0        0        
C4        C        0.125        0.259259        0.0        0        
C1        C        0.083333        0.351852        0.0        0        
C2        C        0.125        0.407408        0.0        0        
C3        C        0.083333        0.42592500000000005        0.0        0        
C4        C        0.125        0.37037        0.0        0        
C1        C        0.083333        0.46296300000000007        0.0        0        
C2        C        0.125        0.518519        0.0        0        
C3        C        0.083333        0.537037        0.0        0        
C4        C        0.125        0.481481        0.0        0        
C1        C        0.083333        0.574075        0.0        0        
C2        C        0.125        0.62963        0.0        0        
C3        C        0.083333        0.648148        0.0        0        
C4        C        0.125        0.592592        0.0        0        
C1        C        0.166667        0.018519        0.0        0        
C2        C        0.208333        0.074075        0.0        0        
C3        C        0.166667        0.092592        0.0        0        
C4        C        0.208333        0.037037        0.0        0        
C1        C        0.166667        0.12963        0.0        0        
C2        C        0.208333        0.185185        0.0        0        
C3        C        0.166667        0.203703        0.0        0        
C4        C        0.208333        0.148148        0.0        0        
C1        C        0.166667        0.24074099999999998        0.0        0        
C2        C        0.208333        0.296297        0.0        0        
C3        C        0.166667        0.314815        0.0        0        
C4        C        0.208333        0.259259        0.0        0        
C1        C        0.166667        0.351852        0.0        0        
C2        C        0.208333        0.407408        0.0        0        
C3        C        0.166667        0.42592500000000005        0.0        0        
C4        C        0.208333        0.37037        0.0        0        
C1        C        0.166667        0.46296300000000007        0.0        0        
C2        C        0.208333        0.518519        0.0        0        
C3        C        0.166667        0.537037        0.0        0        
C4        C        0.208333        0.481481        0.0        0        
C1        C        0.166667        0.574075        0.0        0        
C2        C        0.208333        0.62963        0.0        0        
C3        C        0.166667        0.648148        0.0        0        
C4        C        0.208333        0.592592        0.0        0        
C1        C        0.25        0.018519        0.0        0        
C2        C        0.291667        0.074075        0.0        0        
C3        C        0.25        0.092592        0.0        0        
C4        C        0.291667        0.037037        0.0        0        
C1        C        0.25        0.12963        0.0        0        
C2        C        0.291667        0.185185        0.0        0        
C3        C        0.25        0.203703        0.0        0        
C4        C        0.291667        0.148148        0.0        0        
C1        C        0.25        0.24074099999999998        0.0        0        
C2        C        0.291667        0.296297        0.0        0        
C3        C        0.25        0.314815        0.0        0        
C4        C        0.291667        0.259259        0.0        0        
C1        C        0.25        0.351852        0.0        0        
C2        C        0.291667        0.407408        0.0        0        
C3        C        0.25        0.42592500000000005        0.0        0        
C4        C        0.291667        0.37037        0.0        0        
C1        C        0.25        0.46296300000000007        0.0        0        
C2        C        0.291667        0.518519        0.0        0        
C3        C        0.25        0.537037        0.0        0        
C4        C        0.291667        0.481481        0.0        0        
C1        C        0.25        0.574075        0.0        0        
C2        C        0.291667        0.62963        0.0        0        
C3        C        0.25        0.648148        0.0        0        
C4        C        0.291667        0.592592        0.0        0        
C1        C        0.333333        0.018519        0.0        0        
C2        C        0.375        0.074075        0.0        0        
C3        C        0.333333        0.092592        0.0        0        
C4        C        0.375        0.037037        0.0        0        
C1        C        0.333333        0.12963        0.0        0        
C2        C        0.375        0.185185        0.0        0        
C3        C        0.333333        0.203703        0.0        0        
C4        C        0.375        0.148148        0.0        0        
C1        C        0.333333        0.24074099999999998        0.0        0        
C2        C        0.375        0.296297        0.0        0        
C3        C        0.333333        0.314815        0.0        0        
C4        C        0.375        0.259259        0.0        0        
C1        C        0.333333        0.351852        0.0        0        
C2        C        0.375        0.407408        0.0        0        
C3        C        0.333333        0.42592500000000005        0.0        0        
C4        C        0.375        0.37037        0.0        0        
C1        C        0.333333        0.46296300000000007        0.0        0        
C2        C        0.375        0.518519        0.0        0        
C3        C        0.333333        0.537037        0.0        0        
C4        C        0.375        0.481481        0.0        0        
C1        C        0.333333        0.574075        0.0        0        
C2        C        0.375        0.62963        0.0        0        
C3        C        0.333333        0.648148        0.0        0        
C4        C        0.375        0.592592        0.0        0        
C1        C        0.416667        0.018519        0.0        0        
C2        C        0.458333        0.074075        0.0        0        
C3        C        0.416667        0.092592        0.0        0        
C4        C        0.458333        0.037037        0.0        0        
C1        C        0.416667        0.12963        0.0        0        
C2        C        0.458333        0.185185        0.0        0        
C3        C        0.416667        0.203703        0.0        0        
C4        C        0.458333        0.148148        0.0        0        
C1        C        0.416667        0.24074099999999998        0.0        0        
C2        C        0.458333        0.296297        0.0        0        
C3        C        0.416667        0.314815        0.0        0        
C4        C        0.458333        0.259259        0.0        0        
C1        C        0.416667        0.351852        0.0        0        
C2        C        0.458333        0.407408        0.0        0        
C3        C        0.416667        0.42592500000000005        0.0        0        
C4        C        0.458333        0.37037        0.0        0        
C1        C        0.416667        0.46296300000000007        0.0        0        
C2        C        0.458333        0.518519        0.0        0        
C3        C        0.416667        0.537037        0.0        0        
C4        C        0.458333        0.481481        0.0        0        
C1        C        0.416667        0.574075        0.0        0        
C2        C        0.458333        0.62963        0.0        0        
C3        C        0.416667        0.648148        0.0        0        
C4        C        0.458333        0.592592        0.0        0        
C1        C        0.5        0.018519        0.0        0        
C2        C        0.541667        0.074075        0.0        0        
C3        C        0.5        0.092592        0.0        0        
C4        C        0.541667        0.037037        0.0        0        
C1        C        0.5        0.12963        0.0        0        
C2        C        0.541667        0.185185        0.0        0        
C3        C        0.5        0.203703        0.0        0        
C4        C        0.541667        0.148148        0.0        0        
C1        C        0.5        0.24074099999999998        0.0        0        
C2        C        0.541667        0.296297        0.0        0        
C3        C        0.5        0.314815        0.0        0        
C4        C        0.541667        0.259259        0.0        0        
C1        C        0.5        0.351852        0.0        0        
C2        C        0.541667        0.407408        0.0        0        
C3        C        0.5        0.42592500000000005        0.0        0        
C4        C        0.541667        0.37037        0.0        0        
C1        C        0.5        0.46296300000000007        0.0        0        
C2        C        0.541667        0.518519        0.0        0        
C3        C        0.5        0.537037        0.0        0        
C4        C        0.541667        0.481481        0.0        0        
C1        C        0.5        0.574075        0.0        0        
C2        C        0.541667        0.62963        0.0        0        
C3        C        0.5        0.648148        0.0        0        
C4        C        0.541667        0.592592        0.0        0        
C1        C        0.583333        0.018519        0.0        0        
C2        C        0.625        0.074075        0.0        0        
C3        C        0.583333        0.092592        0.0        0        
C4        C        0.625        0.037037        0.0        0        
C1        C        0.583333        0.12963        0.0        0        
C2        C        0.625        0.185185        0.0        0        
C3        C        0.583333        0.203703        0.0        0        
C4        C        0.625        0.148148        0.0        0        
C1        C        0.583333        0.24074099999999998        0.0        0        
C2        C        0.625        0.296297        0.0        0        
C3        C        0.583333        0.314815        0.0        0        
C4        C        0.625        0.259259        0.0        0        
C1        C        0.583333        0.351852        0.0        0        
C2        C        0.625        0.407408        0.0        0        
C3        C        0.583333        0.42592500000000005        0.0        0        
C4        C        0.625        0.37037        0.0        0        
C1        C        0.583333        0.46296300000000007        0.0        0        
C2        C        0.625        0.518519        0.0        0        
C3        C        0.583333        0.537037        0.0        0        
C4        C        0.625        0.481481        0.0        0        
C1        C        0.583333        0.574075        0.0        0        
C2        C        0.625        0.62963        0.0        0        
C3        C        0.583333        0.648148        0.0        0        
C4        C        0.625        0.592592        0.0        0        
C1        C        0.666667        0.018519        0.0        0        
C2        C        0.708333        0.074075        0.0        0        
C3        C        0.666667        0.092592        0.0        0        
C4        C        0.708333        0.037037        0.0        0        
C1        C        0.666667        0.12963        0.0        0        
C2        C        0.708333        0.185185        0.0        0        
C3        C        0.666667        0.203703        0.0        0        
C4        C        0.708333        0.148148        0.0        0        
C1        C        0.666667        0.24074099999999998        0.0        0        
C2        C        0.708333        0.296297        0.0        0        
C3        C        0.666667        0.314815        0.0        0        
C4        C        0.708333        0.259259        0.0        0        
C1        C        0.666667        0.351852        0.0        0        
C2        C        0.708333        0.407408        0.0        0        
C3        C        0.666667        0.42592500000000005        0.0        0        
C4        C        0.708333        0.37037        0.0        0        
C1        C        0.666667        0.46296300000000007        0.0        0        
C2        C        0.708333        0.518519        0.0        0        
C3        C        0.666667        0.537037        0.0        0        
C4        C        0.708333        0.481481        0.0        0        
C1        C        0.666667        0.574075        0.0        0        
C2        C        0.708333        0.62963        0.0        0        
C3        C        0.666667        0.648148        0.0        0        
C4        C        0.708333        0.592592        0.0        0        
C1        C        0.75        0.018519        0.0        0        
C2        C        0.7916670000000001        0.074075        0.0        0        
C3        C        0.75        0.092592        0.0        0        
C4        C        0.7916670000000001        0.037037        0.0        0        
C1        C        0.75        0.12963        0.0        0        
C2        C        0.7916670000000001        0.185185        0.0        0        
C3        C        0.75        0.203703        0.0        0        
C4        C        0.7916670000000001        0.148148        0.0        0        
C1        C        0.75        0.24074099999999998        0.0        0        
C2        C        0.7916670000000001        0.296297        0.0        0        
C3        C        0.75        0.314815        0.0        0        
C4        C        0.7916670000000001        0.259259        0.0        0        
C1        C        0.75        0.351852        0.0        0        
C2        C        0.7916670000000001        0.407408        0.0        0        
C3        C        0.75        0.42592500000000005        0.0        0        
C4        C        0.7916670000000001        0.37037        0.0        0        
C1        C        0.75        0.46296300000000007        0.0        0        
C2        C        0.7916670000000001        0.518519        0.0        0        
C3        C        0.75        0.537037        0.0        0        
C4        C        0.7916670000000001        0.481481        0.0        0        
C1        C        0.75        0.574075        0.0        0        
C2        C        0.7916670000000001        0.62963        0.0        0        
C3        C        0.75        0.648148        0.0        0        
C4        C        0.7916670000000001        0.592592        0.0        0        
C1        C        0.833333        0.018519        0.0        0        
C2        C        0.875        0.074075        0.0        0        
C3        C        0.833333        0.092592        0.0        0        
C4        C        0.875        0.037037        0.0        0        
C1        C        0.833333        0.12963        0.0        0        
C2        C        0.875        0.185185        0.0        0        
C3        C        0.833333        0.203703        0.0        0        
C4        C        0.875        0.148148        0.0        0        
C1        C        0.833333        0.24074099999999998        0.0        0        
C2        C        0.875        0.296297        0.0        0        
C3        C        0.833333        0.314815        0.0        0        
C4        C        0.875        0.259259        0.0        0        
C1        C        0.833333        0.351852        0.0        0        
C2        C        0.875        0.407408        0.0        0        
C3        C        0.833333        0.42592500000000005        0.0        0        
C4        C        0.875        0.37037        0.0        0        
C1        C        0.833333        0.46296300000000007        0.0        0        
C2        C        0.875        0.518519        0.0        0        
C3        C        0.833333        0.537037        0.0        0        
C4        C        0.875        0.481481        0.0        0        
C1        C        0.833333        0.574075        0.0        0        
C2        C        0.875        0.62963        0.0        0        
C3        C        0.833333        0.648148        0.0        0        
C4        C        0.875        0.592592        0.0        0        
C1        C        0.916667        0.018519        0.0        0        
C2        C        0.958333        0.074075        0.0        0        
C3        C        0.916667        0.092592        0.0        0        
C4        C        0.958333        0.037037        0.0        0        
C1        C        0.916667        0.12963        0.0        0        
C2        C        0.958333        0.185185        0.0        0        
C3        C        0.916667        0.203703        0.0        0        
C4        C        0.958333        0.148148        0.0        0        
C1        C        0.916667        0.24074099999999998        0.0        0        
C2        C        0.958333        0.296297        0.0        0        
C3        C        0.916667        0.314815        0.0        0        
C4        C        0.958333        0.259259        0.0        0        
C1        C        0.916667        0.351852        0.0        0        
C2        C        0.958333        0.407408        0.0        0        
C3        C        0.916667        0.42592500000000005        0.0        0        
C4        C        0.958333        0.37037        0.0        0        
C1        C        0.916667        0.46296300000000007        0.0        0        
C2        C        0.958333        0.518519        0.0        0        
C3        C        0.916667        0.537037        0.0        0        
C4        C        0.958333        0.481481        0.0        0        
C1        C        0.916667        0.574075        0.0        0        
C2        C        0.958333        0.62963        0.0        0        
C3        C        0.916667        0.648148        0.0        0        
C4        C        0.958333        0.592592        0.0        0        
C1        C        0.0        0.685186        0.0        0        
C1        C        0.083333        0.685186        0.0        0        
C1        C        0.166667        0.685186        0.0        0        
C1        C        0.25        0.685186        0.0        0        
C1        C        0.333333        0.685186        0.0        0        
C1        C        0.416667        0.685186        0.0        0        
C1        C        0.5        0.685186        0.0        0        
C1        C        0.583333        0.685186        0.0        0        
C1        C        0.666667        0.685186        0.0        0        
C1        C        0.75        0.685186        0.0        0        
C1        C        0.833333        0.685186        0.0        0        
C1        C        0.916667        0.685186        0.0        0        
C2        C        0.041667        0.740741        0.0        0        
C2        C        0.125        0.740741        0.0        0        
C2        C        0.208333        0.740741        0.0        0        
C2        C        0.291667        0.740741        0.0        0        
C2        C        0.375        0.740741        0.0        0        
C2        C        0.458333        0.740741        0.0        0        
C2        C        0.541667        0.740741        0.0        0        
C2        C        0.625        0.740741        0.0        0        
C2        C        0.708333        0.740741        0.0        0        
C2        C        0.7916670000000001        0.740741        0.0        0        
C2        C        0.875        0.740741        0.0        0        
C2        C        0.958333        0.740741        0.0        0        
C3        C        0.0        0.759259        0.0        0        
C3        C        0.083333        0.759259        0.0        0        
C3        C        0.166667        0.759259        0.0        0        
C3        C        0.25        0.759259        0.0        0        
C3        C        0.333333        0.759259        0.0        0        
C3        C        0.416667        0.759259        0.0        0        
C3        C        0.5        0.759259        0.0        0        
C3        C        0.583333        0.759259        0.0        0        
C3        C        0.666667        0.759259        0.0        0        
C3        C        0.75        0.759259        0.0        0        
C3        C        0.833333        0.759259        0.0        0        
C3        C        0.916667        0.759259        0.0        0        
C4        C        0.041667        0.703703        0.0        0        
C4        C        0.125        0.703703        0.0        0        
C4        C        0.208333        0.703703        0.0        0        
C4        C        0.291667        0.703703        0.0        0        
C4        C        0.375        0.703703        0.0        0        
C4        C        0.458333        0.703703        0.0        0        
C4        C        0.541667        0.703703        0.0        0        
C4        C        0.625        0.703703        0.0        0        
C4        C        0.708333        0.703703        0.0        0        
C4        C        0.7916670000000001        0.703703        0.0        0        
C4        C        0.875        0.703703        0.0        0        
C4        C        0.958333        0.703703        0.0        0        
C1        C        0.0        0.796297        0.0        0        
C1        C        0.083333        0.796297        0.0        0        
C1        C        0.166667        0.796297        0.0        0        
C1        C        0.25        0.796297        0.0        0        
C1        C        0.333333        0.796297        0.0        0        
C1        C        0.416667        0.796297        0.0        0        
C1        C        0.5        0.796297        0.0        0        
C1        C        0.583333        0.796297        0.0        0        
C1        C        0.666667        0.796297        0.0        0        
C1        C        0.75        0.796297        0.0        0        
C1        C        0.833333        0.796297        0.0        0        
C1        C        0.916667        0.796297        0.0        0        
C2        C        0.041667        0.851852        0.0        0        
C2        C        0.125        0.851852        0.0        0        
C2        C        0.208333        0.851852        0.0        0        
C2        C        0.291667        0.851852        0.0        0        
C2        C        0.375        0.851852        0.0        0        
C2        C        0.458333        0.851852        0.0        0        
C2        C        0.541667        0.851852        0.0        0        
C2        C        0.625        0.851852        0.0        0        
C2        C        0.708333        0.851852        0.0        0        
C2        C        0.7916670000000001        0.851852        0.0        0        
C2        C        0.875        0.851852        0.0        0        
C2        C        0.958333        0.851852        0.0        0        
C3        C        0.0        0.87037        0.0        0        
C3        C        0.083333        0.87037        0.0        0        
C3        C        0.166667        0.87037        0.0        0        
C3        C        0.25        0.87037        0.0        0        
C3        C        0.333333        0.87037        0.0        0        
C3        C        0.416667        0.87037        0.0        0        
C3        C        0.5        0.87037        0.0        0        
C3        C        0.583333        0.87037        0.0        0        
C3        C        0.666667        0.87037        0.0        0        
C3        C        0.75        0.87037        0.0        0        
C3        C        0.833333        0.87037        0.0        0        
C3        C        0.916667        0.87037        0.0        0        
C4        C        0.041667        0.814814        0.0        0        
C4        C        0.125        0.814814        0.0        0        
C4        C        0.208333        0.814814        0.0        0        
C4        C        0.291667        0.814814        0.0        0        
C4        C        0.375        0.814814        0.0        0        
C4        C        0.458333        0.814814        0.0        0        
C4        C        0.541667        0.814814        0.0        0        
C4        C        0.625        0.814814        0.0        0        
C4        C        0.708333        0.814814        0.0        0        
C4        C        0.7916670000000001        0.814814        0.0        0        
C4        C        0.875        0.814814        0.0        0        
C4        C        0.958333        0.814814        0.0        0        
C1        C        0.0        0.907408        0.0        0        
C1        C        0.083333        0.907408        0.0        0        
C1        C        0.166667        0.907408        0.0        0        
C1        C        0.25        0.907408        0.0        0        
C1        C        0.333333        0.907408        0.0        0        
C1        C        0.416667        0.907408        0.0        0        
C1        C        0.5        0.907408        0.0        0        
C1        C        0.583333        0.907408        0.0        0        
C1        C        0.666667        0.907408        0.0        0        
C1        C        0.75        0.907408        0.0        0        
C1        C        0.833333        0.907408        0.0        0        
C1        C        0.916667        0.907408        0.0        0        
C2        C        0.041667        0.962963        0.0        0        
C2        C        0.125        0.962963        0.0        0        
C2        C        0.208333        0.962963        0.0        0        
C2        C        0.291667        0.962963        0.0        0        
C2        C        0.375        0.962963        0.0        0        
C2        C        0.458333        0.962963        0.0        0        
C2        C        0.541667        0.962963        0.0        0        
C2        C        0.625        0.962963        0.0        0        
C2        C        0.708333        0.962963        0.0        0        
C2        C        0.7916670000000001        0.962963        0.0        0        
C2        C        0.875        0.962963        0.0        0        
C2        C        0.958333        0.962963        0.0        0        
C3        C        0.0        0.9814809999999999        0.0        0        
C3        C        0.083333        0.9814809999999999        0.0        0        
C3        C        0.166667        0.9814809999999999        0.0        0        
C3        C        0.25        0.9814809999999999        0.0        0        
C3        C        0.333333        0.9814809999999999        0.0        0        
C3        C        0.416667        0.9814809999999999        0.0        0        
C3        C        0.5        0.9814809999999999        0.0        0        
C3        C        0.583333        0.9814809999999999        0.0        0        
C3        C        0.666667        0.9814809999999999        0.0        0        
C3        C        0.75        0.9814809999999999        0.0        0        
C3        C        0.833333        0.9814809999999999        0.0        0        
C3        C        0.916667        0.9814809999999999        0.0        0        
C4        C        0.041667        0.925925        0.0        0        
C4        C        0.125        0.925925        0.0        0        
C4        C        0.208333        0.925925        0.0        0        
C4        C        0.291667        0.925925        0.0        0        
C4        C        0.375        0.925925        0.0        0        
C4        C        0.458333        0.925925        0.0        0        
C4        C        0.541667        0.925925        0.0        0        
C4        C        0.625        0.925925        0.0        0        
C4        C        0.708333        0.925925        0.0        0        
C4        C        0.7916670000000001        0.925925        0.0        0        
C4        C        0.875        0.925925        0.0        0        
C4        C        0.958333        0.925925        0.0        0        
C1        C        0.0        0.018519        0.115917        0        
C2        C        0.041667        0.074075        0.115917        0        
C3        C        0.0        0.092592        0.115917        0        
C4        C        0.041667        0.037037        0.115917        0        
C1        C        0.0        0.12963        0.115917        0        
C2        C        0.041667        0.185185        0.115917        0        
C3        C        0.0        0.203703        0.115917        0        
C4        C        0.041667        0.148148        0.115917        0        
C1        C        0.0        0.24074099999999998        0.115917        0        
C2        C        0.041667        0.296297        0.115917        0        
C3        C        0.0        0.314815        0.115917        0        
C4        C        0.041667        0.259259        0.115917        0        
C1        C        0.0        0.351852        0.115917        0        
C2        C        0.041667        0.407408        0.115917        0        
C3        C        0.0        0.42592500000000005        0.115917        0        
C4        C        0.041667        0.37037        0.115917        0        
C1        C        0.0        0.46296300000000007        0.115917        0        
C2        C        0.041667        0.518519        0.115917        0        
C3        C        0.0        0.537037        0.115917        0        
C4        C        0.041667        0.481481        0.115917        0        
C1        C        0.0        0.574075        0.115917        0        
C2        C        0.041667        0.62963        0.115917        0        
C3        C        0.0        0.648148        0.115917        0        
C4        C        0.041667        0.592592        0.115917        0        
C1        C        0.083333        0.018519        0.115917        0        
C2        C        0.125        0.074075        0.115917        0        
C3        C        0.083333        0.092592        0.115917        0        
C4        C        0.125        0.037037        0.115917        0        
C1        C        0.083333        0.12963        0.115917        0        
C2        C        0.125        0.185185        0.115917        0        
C3        C        0.083333        0.203703        0.115917        0        
C4        C        0.125        0.148148        0.115917        0        
C1        C        0.083333        0.24074099999999998        0.115917        0        
C2        C        0.125        0.296297        0.115917        0        
C3        C        0.083333        0.314815        0.115917        0        
C4        C        0.125        0.259259        0.115917        0        
C1        C        0.083333        0.351852        0.115917        0        
C2        C        0.125        0.407408        0.115917        0        
C3        C        0.083333        0.42592500000000005        0.115917        0        
C4        C        0.125        0.37037        0.115917        0        
C1        C        0.083333        0.46296300000000007        0.115917        0        
C2        C        0.125        0.518519        0.115917        0        
C3        C        0.083333        0.537037        0.115917        0        
C4        C        0.125        0.481481        0.115917        0        
C1        C        0.083333        0.574075        0.115917        0        
C2        C        0.125        0.62963        0.115917        0        
C3        C        0.083333        0.648148        0.115917        0        
C4        C        0.125        0.592592        0.115917        0        
C1        C        0.166667        0.018519        0.115917        0        
C2        C        0.208333        0.074075        0.115917        0        
C3        C        0.166667        0.092592        0.115917        0        
C4        C        0.208333        0.037037        0.115917        0        
C1        C        0.166667        0.12963        0.115917        0        
C2        C        0.208333        0.185185        0.115917        0        
C3        C        0.166667        0.203703        0.115917        0        
C4        C        0.208333        0.148148        0.115917        0        
C1        C        0.166667        0.24074099999999998        0.115917        0        
C2        C        0.208333        0.296297        0.115917        0        
C3        C        0.166667        0.314815        0.115917        0        
C4        C        0.208333        0.259259        0.115917        0        
C1        C        0.166667        0.351852        0.115917        0        
C2        C        0.208333        0.407408        0.115917        0        
C3        C        0.166667        0.42592500000000005        0.115917        0        
C4        C        0.208333        0.37037        0.115917        0        
C1        C        0.166667        0.46296300000000007        0.115917        0        
C2        C        0.208333        0.518519        0.115917        0        
C3        C        0.166667        0.537037        0.115917        0        
C4        C        0.208333        0.481481        0.115917        0        
C1        C        0.166667        0.574075        0.115917        0        
C2        C        0.208333        0.62963        0.115917        0        
C3        C        0.166667        0.648148        0.115917        0        
C4        C        0.208333        0.592592        0.115917        0        
C1        C        0.25        0.018519        0.115917        0        
C2        C        0.291667        0.074075        0.115917        0        
C3        C        0.25        0.092592        0.115917        0        
C4        C        0.291667        0.037037        0.115917        0        
C1        C        0.25        0.12963        0.115917        0        
C2        C        0.291667        0.185185        0.115917        0        
C3        C        0.25        0.203703        0.115917        0        
C4        C        0.291667        0.148148        0.115917        0        
C1        C        0.25        0.24074099999999998        0.115917        0        
C2        C        0.291667        0.296297        0.115917        0        
C3        C        0.25        0.314815        0.115917        0        
C4        C        0.291667        0.259259        0.115917        0        
C1        C        0.25        0.351852        0.115917        0        
C2        C        0.291667        0.407408        0.115917        0        
C3        C        0.25        0.42592500000000005        0.115917        0        
C4        C        0.291667        0.37037        0.115917        0        
C1        C        0.25        0.46296300000000007        0.115917        0        
C2        C        0.291667        0.518519        0.115917        0        
C3        C        0.25        0.537037        0.115917        0        
C4        C        0.291667        0.481481        0.115917        0        
C1        C        0.25        0.574075        0.115917        0        
C2        C        0.291667        0.62963        0.115917        0        
C3        C        0.25        0.648148        0.115917        0        
C4        C        0.291667        0.592592        0.115917        0        
C1        C        0.333333        0.018519        0.115917        0        
C2        C        0.375        0.074075        0.115917        0        
C3        C        0.333333        0.092592        0.115917        0        
C4        C        0.375        0.037037        0.115917        0        
C1        C        0.333333        0.12963        0.115917        0        
C2        C        0.375        0.185185        0.115917        0        
C3        C        0.333333        0.203703        0.115917        0        
C4        C        0.375        0.148148        0.115917        0        
C1        C        0.333333        0.24074099999999998        0.115917        0        
C2        C        0.375        0.296297        0.115917        0        
C3        C        0.333333        0.314815        0.115917        0        
C4        C        0.375        0.259259        0.115917        0        
C1        C        0.333333        0.351852        0.115917        0        
C2        C        0.375        0.407408        0.115917        0        
C3        C        0.333333        0.42592500000000005        0.115917        0        
C4        C        0.375        0.37037        0.115917        0        
C1        C        0.333333        0.46296300000000007        0.115917        0        
C2        C        0.375        0.518519        0.115917        0        
C3        C        0.333333        0.537037        0.115917        0        
C4        C        0.375        0.481481        0.115917        0        
C1        C        0.333333        0.574075        0.115917        0        
C2        C        0.375        0.62963        0.115917        0        
C3        C        0.333333        0.648148        0.115917        0        
C4        C        0.375        0.592592        0.115917        0        
C1        C        0.416667        0.018519        0.115917        0        
C2        C        0.458333        0.074075        0.115917        0        
C3        C        0.416667        0.092592        0.115917        0        
C4        C        0.458333        0.037037        0.115917        0        
C1        C        0.416667        0.12963        0.115917        0        
C2        C        0.458333        0.185185        0.115917        0        
C3        C        0.416667        0.203703        0.115917        0        
C4        C        0.458333        0.148148        0.115917        0        
C1        C        0.416667        0.24074099999999998        0.115917        0        
C2        C        0.458333        0.296297        0.115917        0        
C3        C        0.416667        0.314815        0.115917        0        
C4        C        0.458333        0.259259        0.115917        0        
C1        C        0.416667        0.351852        0.115917        0        
C2        C        0.458333        0.407408        0.115917        0        
C3        C        0.416667        0.42592500000000005        0.115917        0        
C4        C        0.458333        0.37037        0.115917        0        
C1        C        0.416667        0.46296300000000007        0.115917        0        
C2        C        0.458333        0.518519        0.115917        0        
C3        C        0.416667        0.537037        0.115917        0        
C4        C        0.458333        0.481481        0.115917        0        
C1        C        0.416667        0.574075        0.115917        0        
C2        C        0.458333        0.62963        0.115917        0        
C3        C        0.416667        0.648148        0.115917        0        
C4        C        0.458333        0.592592        0.115917        0        
C1        C        0.5        0.018519        0.115917        0        
C2        C        0.541667        0.074075        0.115917        0        
C3        C        0.5        0.092592        0.115917        0        
C4        C        0.541667        0.037037        0.115917        0        
C1        C        0.5        0.12963        0.115917        0        
C2        C        0.541667        0.185185        0.115917        0        
C3        C        0.5        0.203703        0.115917        0        
C4        C        0.541667        0.148148        0.115917        0        
C1        C        0.5        0.24074099999999998        0.115917        0        
C2        C        0.541667        0.296297        0.115917        0        
C3        C        0.5        0.314815        0.115917        0        
C4        C        0.541667        0.259259        0.115917        0        
C1        C        0.5        0.351852        0.115917        0        
C2        C        0.541667        0.407408        0.115917        0        
C3        C        0.5        0.42592500000000005        0.115917        0        
C4        C        0.541667        0.37037        0.115917        0        
C1        C        0.5        0.46296300000000007        0.115917        0        
C2        C        0.541667        0.518519        0.115917        0        
C3        C        0.5        0.537037        0.115917        0        
C4        C        0.541667        0.481481        0.115917        0        
C1        C        0.5        0.574075        0.115917        0        
C2        C        0.541667        0.62963        0.115917        0        
C3        C        0.5        0.648148        0.115917        0        
C4        C        0.541667        0.592592        0.115917        0        
C1        C        0.583333        0.018519        0.115917        0        
C2        C        0.625        0.074075        0.115917        0        
C3        C        0.583333        0.092592        0.115917        0        
C4        C        0.625        0.037037        0.115917        0        
C1        C        0.583333        0.12963        0.115917        0        
C2        C        0.625        0.185185        0.115917        0        
C3        C        0.583333        0.203703        0.115917        0        
C4        C        0.625        0.148148        0.115917        0        
C1        C        0.583333        0.24074099999999998        0.115917        0        
C2        C        0.625        0.296297        0.115917        0        
C3        C        0.583333        0.314815        0.115917        0        
C4        C        0.625        0.259259        0.115917        0        
C1        C        0.583333        0.351852        0.115917        0        
C2        C        0.625        0.407408        0.115917        0        
C3        C        0.583333        0.42592500000000005        0.115917        0        
C4        C        0.625        0.37037        0.115917        0        
C1        C        0.583333        0.46296300000000007        0.115917        0        
C2        C        0.625        0.518519        0.115917        0        
C3        C        0.583333        0.537037        0.115917        0        
C4        C        0.625        0.481481        0.115917        0        
C1        C        0.583333        0.574075        0.115917        0        
C2        C        0.625        0.62963        0.115917        0        
C3        C        0.583333        0.648148        0.115917        0        
C4        C        0.625        0.592592        0.115917        0        
C1        C        0.666667        0.018519        0.115917        0        
C2        C        0.708333        0.074075        0.115917        0        
C3        C        0.666667        0.092592        0.115917        0        
C4        C        0.708333        0.037037        0.115917        0        
C1        C        0.666667        0.12963        0.115917        0        
C2        C        0.708333        0.185185        0.115917        0        
C3        C        0.666667        0.203703        0.115917        0        
C4        C        0.708333        0.148148        0.115917        0        
C1        C        0.666667        0.24074099999999998        0.115917        0        
C2        C        0.708333        0.296297        0.115917        0        
C3        C        0.666667        0.314815        0.115917        0        
C4        C        0.708333        0.259259        0.115917        0        
C1        C        0.666667        0.351852        0.115917        0        
C2        C        0.708333        0.407408        0.115917        0        
C3        C        0.666667        0.42592500000000005        0.115917        0        
C4        C        0.708333        0.37037        0.115917        0        
C1        C        0.666667        0.46296300000000007        0.115917        0        
C2        C        0.708333        0.518519        0.115917        0        
C3        C        0.666667        0.537037        0.115917        0        
C4        C        0.708333        0.481481        0.115917        0        
C1        C        0.666667        0.574075        0.115917        0        
C2        C        0.708333        0.62963        0.115917        0        
C3        C        0.666667        0.648148        0.115917        0        
C4        C        0.708333        0.592592        0.115917        0        
C1        C        0.75        0.018519        0.115917        0        
C2        C        0.7916670000000001        0.074075        0.115917        0        
C3        C        0.75        0.092592        0.115917        0        
C4        C        0.7916670000000001        0.037037        0.115917        0        
C1        C        0.75        0.12963        0.115917        0        
C2        C        0.7916670000000001        0.185185        0.115917        0        
C3        C        0.75        0.203703        0.115917        0        
C4        C        0.7916670000000001        0.148148        0.115917        0        
C1        C        0.75        0.24074099999999998        0.115917        0        
C2        C        0.7916670000000001        0.296297        0.115917        0        
C3        C        0.75        0.314815        0.115917        0        
C4        C        0.7916670000000001        0.259259        0.115917        0        
C1        C        0.75        0.351852        0.115917        0        
C2        C        0.7916670000000001        0.407408        0.115917        0        
C3        C        0.75        0.42592500000000005        0.115917        0        
C4        C        0.7916670000000001        0.37037        0.115917        0        
C1        C        0.75        0.46296300000000007        0.115917        0        
C2        C        0.7916670000000001        0.518519        0.115917        0        
C3        C        0.75        0.537037        0.115917        0        
C4        C        0.7916670000000001        0.481481        0.115917        0        
C1        C        0.75        0.574075        0.115917        0        
C2        C        0.7916670000000001        0.62963        0.115917        0        
C3        C        0.75        0.648148        0.115917        0        
C4        C        0.7916670000000001        0.592592        0.115917        0        
C1        C        0.833333        0.018519        0.115917        0        
C2        C        0.875        0.074075        0.115917        0        
C3        C        0.833333        0.092592        0.115917        0        
C4        C        0.875        0.037037        0.115917        0        
C1        C        0.833333        0.12963        0.115917        0        
C2        C        0.875        0.185185        0.115917        0        
C3        C        0.833333        0.203703        0.115917        0        
C4        C        0.875        0.148148        0.115917        0        
C1        C        0.833333        0.24074099999999998        0.115917        0        
C2        C        0.875        0.296297        0.115917        0        
C3        C        0.833333        0.314815        0.115917        0        
C4        C        0.875        0.259259        0.115917        0        
C1        C        0.833333        0.351852        0.115917        0        
C2        C        0.875        0.407408        0.115917        0        
C3        C        0.833333        0.42592500000000005        0.115917        0        
C4        C        0.875        0.37037        0.115917        0        
C1        C        0.833333        0.46296300000000007        0.115917        0        
C2        C        0.875        0.518519        0.115917        0        
C3        C        0.833333        0.537037        0.115917        0        
C4        C        0.875        0.481481        0.115917        0        
C1        C        0.833333        0.574075        0.115917        0        
C2        C        0.875        0.62963        0.115917        0        
C3        C        0.833333        0.648148        0.115917        0        
C4        C        0.875        0.592592        0.115917        0        
C1        C        0.916667        0.018519        0.115917        0        
C2        C        0.958333        0.074075        0.115917        0        
C3        C        0.916667        0.092592        0.115917        0        
C4        C        0.958333        0.037037        0.115917        0        
C1        C        0.916667        0.12963        0.115917        0        
C2        C        0.958333        0.185185        0.115917        0        
C3        C        0.916667        0.203703        0.115917        0        
C4        C        0.958333        0.148148        0.115917        0        
C1        C        0.916667        0.24074099999999998        0.115917        0        
C2        C        0.958333        0.296297        0.115917        0        
C3        C        0.916667        0.314815        0.115917        0        
C4        C        0.958333        0.259259        0.115917        0        
C1        C        0.916667        0.351852        0.115917        0        
C2        C        0.958333        0.407408        0.115917        0        
C3        C        0.916667        0.42592500000000005        0.115917        0        
C4        C        0.958333        0.37037        0.115917        0        
C1        C        0.916667        0.46296300000000007        0.115917        0        
C2        C        0.958333        0.518519        0.115917        0        
C3        C        0.916667        0.537037        0.115917        0        
C4        C        0.958333        0.481481        0.115917        0        
C1        C        0.916667        0.574075        0.115917        0        
C2        C        0.958333        0.62963        0.115917        0        
C3        C        0.916667        0.648148        0.115917        0        
C4        C        0.958333        0.592592        0.115917        0        
C1        C        0.0        0.685186        0.115917        0        
C1        C        0.083333        0.685186        0.115917        0        
C1        C        0.166667        0.685186        0.115917        0        
C1        C        0.25        0.685186        0.115917        0        
C1        C        0.333333        0.685186        0.115917        0        
C1        C        0.416667        0.685186        0.115917        0        
C1        C        0.5        0.685186        0.115917        0        
C1        C        0.583333        0.685186        0.115917        0        
C1        C        0.666667        0.685186        0.115917        0        
C1        C        0.75        0.685186        0.115917        0        
C1        C        0.833333        0.685186        0.115917        0        
C1        C        0.916667        0.685186        0.115917        0        
C2        C        0.041667        0.740741        0.115917        0        
C2        C        0.125        0.740741        0.115917        0        
C2        C        0.208333        0.740741        0.115917        0        
C2        C        0.291667        0.740741        0.115917        0        
C2        C        0.375        0.740741        0.115917        0        
C2        C        0.458333        0.740741        0.115917        0        
C2        C        0.541667        0.740741        0.115917        0        
C2        C        0.625        0.740741        0.115917        0        
C2        C        0.708333        0.740741        0.115917        0        
C2        C        0.7916670000000001        0.740741        0.115917        0        
C2        C        0.875        0.740741        0.115917        0        
C2        C        0.958333        0.740741        0.115917        0        
C3        C        0.0        0.759259        0.115917        0        
C3        C        0.083333        0.759259        0.115917        0        
C3        C        0.166667        0.759259        0.115917        0        
C3        C        0.25        0.759259        0.115917        0        
C3        C        0.333333        0.759259        0.115917        0        
C3        C        0.416667        0.759259        0.115917        0        
C3        C        0.5        0.759259        0.115917        0        
C3        C        0.583333        0.759259        0.115917        0        
C3        C        0.666667        0.759259        0.115917        0        
C3        C        0.75        0.759259        0.115917        0        
C3        C        0.833333        0.759259        0.115917        0        
C3        C        0.916667        0.759259        0.115917        0        
C4        C        0.041667        0.703703        0.115917        0        
C4        C        0.125        0.703703        0.115917        0        
C4        C        0.208333        0.703703        0.115917        0        
C4        C        0.291667        0.703703        0.115917        0        
C4        C        0.375        0.703703        0.115917        0        
C4        C        0.458333        0.703703        0.115917        0        
C4        C        0.541667        0.703703        0.115917        0        
C4        C        0.625        0.703703        0.115917        0        
C4        C        0.708333        0.703703        0.115917        0        
C4        C        0.7916670000000001        0.703703        0.115917        0        
C4        C        0.875        0.703703        0.115917        0        
C4        C        0.958333        0.703703        0.115917        0        
C1        C        0.0        0.796297        0.115917        0        
C1        C        0.083333        0.796297        0.115917        0        
C1        C        0.166667        0.796297        0.115917        0        
C1        C        0.25        0.796297        0.115917        0        
C1        C        0.333333        0.796297        0.115917        0        
C1        C        0.416667        0.796297        0.115917        0        
C1        C        0.5        0.796297        0.115917        0        
C1        C        0.583333        0.796297        0.115917        0        
C1        C        0.666667        0.796297        0.115917        0        
C1        C        0.75        0.796297        0.115917        0        
C1        C        0.833333        0.796297        0.115917        0        
C1        C        0.916667        0.796297        0.115917        0        
C2        C        0.041667        0.851852        0.115917        0        
C2        C        0.125        0.851852        0.115917        0        
C2        C        0.208333        0.851852        0.115917        0        
C2        C        0.291667        0.851852        0.115917        0        
C2        C        0.375        0.851852        0.115917        0        
C2        C        0.458333        0.851852        0.115917        0        
C2        C        0.541667        0.851852        0.115917        0        
C2        C        0.625        0.851852        0.115917        0        
C2        C        0.708333        0.851852        0.115917        0        
C2        C        0.7916670000000001        0.851852        0.115917        0        
C2        C        0.875        0.851852        0.115917        0        
C2        C        0.958333        0.851852        0.115917        0        
C3        C        0.0        0.87037        0.115917        0        
C3        C        0.083333        0.87037        0.115917        0        
C3        C        0.166667        0.87037        0.115917        0        
C3        C        0.25        0.87037        0.115917        0        
C3        C        0.333333        0.87037        0.115917        0        
C3        C        0.416667        0.87037        0.115917        0        
C3        C        0.5        0.87037        0.115917        0        
C3        C        0.583333        0.87037        0.115917        0        
C3        C        0.666667        0.87037        0.115917        0        
C3        C        0.75        0.87037        0.115917        0        
C3        C        0.833333        0.87037        0.115917        0        
C3        C        0.916667        0.87037        0.115917        0        
C4        C        0.041667        0.814814        0.115917        0        
C4        C        0.125        0.814814        0.115917        0        
C4        C        0.208333        0.814814        0.115917        0        
C4        C        0.291667        0.814814        0.115917        0        
C4        C        0.375        0.814814        0.115917        0        
C4        C        0.458333        0.814814        0.115917        0        
C4        C        0.541667        0.814814        0.115917        0        
C4        C        0.625        0.814814        0.115917        0        
C4        C        0.708333        0.814814        0.115917        0        
C4        C        0.7916670000000001        0.814814        0.115917        0        
C4        C        0.875        0.814814        0.115917        0        
C4        C        0.958333        0.814814        0.115917        0        
C1        C        0.0        0.907408        0.115917        0        
C1        C        0.083333        0.907408        0.115917        0        
C1        C        0.166667        0.907408        0.115917        0        
C1        C        0.25        0.907408        0.115917        0        
C1        C        0.333333        0.907408        0.115917        0        
C1        C        0.416667        0.907408        0.115917        0        
C1        C        0.5        0.907408        0.115917        0        
C1        C        0.583333        0.907408        0.115917        0        
C1        C        0.666667        0.907408        0.115917        0        
C1        C        0.75        0.907408        0.115917        0        
C1        C        0.833333        0.907408        0.115917        0        
C1        C        0.916667        0.907408        0.115917        0        
C2        C        0.041667        0.962963        0.115917        0        
C2        C        0.125        0.962963        0.115917        0        
C2        C        0.208333        0.962963        0.115917        0        
C2        C        0.291667        0.962963        0.115917        0        
C2        C        0.375        0.962963        0.115917        0        
C2        C        0.458333        0.962963        0.115917        0        
C2        C        0.541667        0.962963        0.115917        0        
C2        C        0.625        0.962963        0.115917        0        
C2        C        0.708333        0.962963        0.115917        0        
C2        C        0.7916670000000001        0.962963        0.115917        0        
C2        C        0.875        0.962963        0.115917        0        
C2        C        0.958333        0.962963        0.115917        0        
C3        C        0.0        0.9814809999999999        0.115917        0        
C3        C        0.083333        0.9814809999999999        0.115917        0        
C3        C        0.166667        0.9814809999999999        0.115917        0        
C3        C        0.25        0.9814809999999999        0.115917        0        
C3        C        0.333333        0.9814809999999999        0.115917        0        
C3        C        0.416667        0.9814809999999999        0.115917        0        
C3        C        0.5        0.9814809999999999        0.115917        0        
C3        C        0.583333        0.9814809999999999        0.115917        0        
C3        C        0.666667        0.9814809999999999        0.115917        0        
C3        C        0.75        0.9814809999999999        0.115917        0        
C3        C        0.833333        0.9814809999999999        0.115917        0        
C3        C        0.916667        0.9814809999999999        0.115917        0        
C4        C        0.041667        0.925925        0.115917        0        
C4        C        0.125        0.925925        0.115917        0        
C4        C        0.208333        0.925925        0.115917        0        
C4        C        0.291667        0.925925        0.115917        0        
C4        C        0.375        0.925925        0.115917        0        
C4        C        0.458333        0.925925        0.115917        0        
C4        C        0.541667        0.925925        0.115917        0        
C4        C        0.625        0.925925        0.115917        0        
C4        C        0.708333        0.925925        0.115917        0        
C4        C        0.7916670000000001        0.925925        0.115917        0        
C4        C        0.875        0.925925        0.115917        0        
C4        C        0.958333        0.925925        0.115917        0        
C1        C        0.0        0.018519        0.231834        0        
C2        C        0.041667        0.074075        0.231834        0        
C3        C        0.0        0.092592        0.231834        0        
C4        C        0.041667        0.037037        0.231834        0        
C1        C        0.0        0.12963        0.231834        0        
C2        C        0.041667        0.185185        0.231834        0        
C3        C        0.0        0.203703        0.231834        0        
C4        C        0.041667        0.148148        0.231834        0        
C1        C        0.0        0.24074099999999998        0.231834        0        
C2        C        0.041667        0.296297        0.231834        0        
C3        C        0.0        0.314815        0.231834        0        
C4        C        0.041667        0.259259        0.231834        0        
C1        C        0.0        0.351852        0.231834        0        
C2        C        0.041667        0.407408        0.231834        0        
C3        C        0.0        0.42592500000000005        0.231834        0        
C4        C        0.041667        0.37037        0.231834        0        
C1        C        0.0        0.46296300000000007        0.231834        0        
C2        C        0.041667        0.518519        0.231834        0        
C3        C        0.0        0.537037        0.231834        0        
C4        C        0.041667        0.481481        0.231834        0        
C1        C        0.0        0.574075        0.231834        0        
C2        C        0.041667        0.62963        0.231834        0        
C3        C        0.0        0.648148        0.231834        0        
C4        C        0.041667        0.592592        0.231834        0        
C_FG        C        0.083333        0.018519        0.231834        0.2        
C2        C        0.125        0.074075        0.231834        0        
C3        C        0.083333        0.092592        0.231834        0        
C4        C        0.125        0.037037        0.231834        0        
C_FG        C        0.083333        0.12963        0.231834        0.2        
C2        C        0.125        0.185185        0.231834        0        
C3        C        0.083333        0.203703        0.231834        0        
C4        C        0.125        0.148148        0.231834        0        
C_FG        C        0.083333        0.24074099999999998        0.231834        0.2        
C2        C        0.125        0.296297        0.231834        0        
C3        C        0.083333        0.314815        0.231834        0        
C4        C        0.125        0.259259        0.231834        0        
C_FG        C        0.083333        0.351852        0.231834        0.2        
C2        C        0.125        0.407408        0.231834        0        
C3        C        0.083333        0.42592500000000005        0.231834        0        
C4        C        0.125        0.37037        0.231834        0        
C_FG        C        0.083333        0.46296300000000007        0.231834        0.2        
C2        C        0.125        0.518519        0.231834        0        
C3        C        0.083333        0.537037        0.231834        0        
C4        C        0.125        0.481481        0.231834        0        
C_FG        C        0.083333        0.574075        0.231834        0.2        
C2        C        0.125        0.62963        0.231834        0        
C3        C        0.083333        0.648148        0.231834        0        
C4        C        0.125        0.592592        0.231834        0        
C1        C        0.166667        0.018519        0.231834        0        
C2        C        0.208333        0.074075        0.231834        0        
C3        C        0.166667        0.092592        0.231834        0        
C4        C        0.208333        0.037037        0.231834        0        
C1        C        0.166667        0.12963        0.231834        0        
C2        C        0.208333        0.185185        0.231834        0        
C3        C        0.166667        0.203703        0.231834        0        
C4        C        0.208333        0.148148        0.231834        0        
C1        C        0.166667        0.24074099999999998        0.231834        0        
C2        C        0.208333        0.296297        0.231834        0        
C3        C        0.166667        0.314815        0.231834        0        
C4        C        0.208333        0.259259        0.231834        0        
C1        C        0.166667        0.351852        0.231834        0        
C2        C        0.208333        0.407408        0.231834        0        
C3        C        0.166667        0.42592500000000005        0.231834        0        
C4        C        0.208333        0.37037        0.231834        0        
C1        C        0.166667        0.46296300000000007        0.231834        0        
C2        C        0.208333        0.518519        0.231834        0        
C3        C        0.166667        0.537037        0.231834        0        
C4        C        0.208333        0.481481        0.231834        0        
C1        C        0.166667        0.574075        0.231834        0        
C2        C        0.208333        0.62963        0.231834        0        
C3        C        0.166667        0.648148        0.231834        0        
C4        C        0.208333        0.592592        0.231834        0        
C_FG        C        0.25        0.018519        0.231834        0.2        
C2        C        0.291667        0.074075        0.231834        0        
C3        C        0.25        0.092592        0.231834        0        
C4        C        0.291667        0.037037        0.231834        0        
C_FG        C        0.25        0.12963        0.231834        0.2        
C2        C        0.291667        0.185185        0.231834        0        
C3        C        0.25        0.203703        0.231834        0        
C4        C        0.291667        0.148148        0.231834        0        
C_FG        C        0.25        0.24074099999999998        0.231834        0.2        
C2        C        0.291667        0.296297        0.231834        0        
C3        C        0.25        0.314815        0.231834        0        
C4        C        0.291667        0.259259        0.231834        0        
C_FG        C        0.25        0.351852        0.231834        0.2        
C2        C        0.291667        0.407408        0.231834        0        
C3        C        0.25        0.42592500000000005        0.231834        0        
C4        C        0.291667        0.37037        0.231834        0        
C_FG        C        0.25        0.46296300000000007        0.231834        0.2        
C2        C        0.291667        0.518519        0.231834        0        
C3        C        0.25        0.537037        0.231834        0        
C4        C        0.291667        0.481481        0.231834        0        
C_FG        C        0.25        0.574075        0.231834        0.2        
C2        C        0.291667        0.62963        0.231834        0        
C3        C        0.25        0.648148        0.231834        0        
C4        C        0.291667        0.592592        0.231834        0        
C1        C        0.333333        0.018519        0.231834        0        
C2        C        0.375        0.074075        0.231834        0        
C3        C        0.333333        0.092592        0.231834        0        
C4        C        0.375        0.037037        0.231834        0        
C1        C        0.333333        0.12963        0.231834        0        
C2        C        0.375        0.185185        0.231834        0        
C3        C        0.333333        0.203703        0.231834        0        
C4        C        0.375        0.148148        0.231834        0        
C1        C        0.333333        0.24074099999999998        0.231834        0        
C2        C        0.375        0.296297        0.231834        0        
C3        C        0.333333        0.314815        0.231834        0        
C4        C        0.375        0.259259        0.231834        0        
C1        C        0.333333        0.351852        0.231834        0        
C2        C        0.375        0.407408        0.231834        0        
C3        C        0.333333        0.42592500000000005        0.231834        0        
C4        C        0.375        0.37037        0.231834        0        
C1        C        0.333333        0.46296300000000007        0.231834        0        
C2        C        0.375        0.518519        0.231834        0        
C3        C        0.333333        0.537037        0.231834        0        
C4        C        0.375        0.481481        0.231834        0        
C1        C        0.333333        0.574075        0.231834        0        
C2        C        0.375        0.62963        0.231834        0        
C3        C        0.333333        0.648148        0.231834        0        
C4        C        0.375        0.592592        0.231834        0        
C1        C        0.416667        0.018519        0.231834        0        
C2        C        0.458333        0.074075        0.231834        0        
C3        C        0.416667        0.092592        0.231834        0        
C4        C        0.458333        0.037037        0.231834        0        
C1        C        0.416667        0.12963        0.231834        0        
C2        C        0.458333        0.185185        0.231834        0        
C3        C        0.416667        0.203703        0.231834        0        
C4        C        0.458333        0.148148        0.231834        0        
C1        C        0.416667        0.24074099999999998        0.231834        0        
C2        C        0.458333        0.296297        0.231834        0        
C3        C        0.416667        0.314815        0.231834        0        
C4        C        0.458333        0.259259        0.231834        0        
C1        C        0.416667        0.351852        0.231834        0        
C2        C        0.458333        0.407408        0.231834        0        
C3        C        0.416667        0.42592500000000005        0.231834        0        
C4        C        0.458333        0.37037        0.231834        0        
C1        C        0.416667        0.46296300000000007        0.231834        0        
C2        C        0.458333        0.518519        0.231834        0        
C3        C        0.416667        0.537037        0.231834        0        
C4        C        0.458333        0.481481        0.231834        0        
C1        C        0.416667        0.574075        0.231834        0        
C2        C        0.458333        0.62963        0.231834        0        
C3        C        0.416667        0.648148        0.231834        0        
C4        C        0.458333        0.592592        0.231834        0        
C1        C        0.5        0.018519        0.231834        0        
C2        C        0.541667        0.074075        0.231834        0        
C3        C        0.5        0.092592        0.231834        0        
C4        C        0.541667        0.037037        0.231834        0        
C1        C        0.5        0.12963        0.231834        0        
C2        C        0.541667        0.185185        0.231834        0        
C3        C        0.5        0.203703        0.231834        0        
C4        C        0.541667        0.148148        0.231834        0        
C1        C        0.5        0.24074099999999998        0.231834        0        
C2        C        0.541667        0.296297        0.231834        0        
C3        C        0.5        0.314815        0.231834        0        
C4        C        0.541667        0.259259        0.231834        0        
C1        C        0.5        0.351852        0.231834        0        
C2        C        0.541667        0.407408        0.231834        0        
C3        C        0.5        0.42592500000000005        0.231834        0        
C4        C        0.541667        0.37037        0.231834        0        
C1        C        0.5        0.46296300000000007        0.231834        0        
C2        C        0.541667        0.518519        0.231834        0        
C3        C        0.5        0.537037        0.231834        0        
C4        C        0.541667        0.481481        0.231834        0        
C1        C        0.5        0.574075        0.231834        0        
C2        C        0.541667        0.62963        0.231834        0        
C3        C        0.5        0.648148        0.231834        0        
C4        C        0.541667        0.592592        0.231834        0        
C1        C        0.583333        0.018519        0.231834        0        
C2        C        0.625        0.074075        0.231834        0        
C3        C        0.583333        0.092592        0.231834        0        
C4        C        0.625        0.037037        0.231834        0        
C1        C        0.583333        0.12963        0.231834        0        
C2        C        0.625        0.185185        0.231834        0        
C3        C        0.583333        0.203703        0.231834        0        
C4        C        0.625        0.148148        0.231834        0        
C1        C        0.583333        0.24074099999999998        0.231834        0        
C2        C        0.625        0.296297        0.231834        0        
C3        C        0.583333        0.314815        0.231834        0        
C4        C        0.625        0.259259        0.231834        0        
C1        C        0.583333        0.351852        0.231834        0        
C2        C        0.625        0.407408        0.231834        0        
C3        C        0.583333        0.42592500000000005        0.231834        0        
C4        C        0.625        0.37037        0.231834        0        
C1        C        0.583333        0.46296300000000007        0.231834        0        
C2        C        0.625        0.518519        0.231834        0        
C3        C        0.583333        0.537037        0.231834        0        
C4        C        0.625        0.481481        0.231834        0        
C1        C        0.583333        0.574075        0.231834        0        
C2        C        0.625        0.62963        0.231834        0        
C3        C        0.583333        0.648148        0.231834        0        
C4        C        0.625        0.592592        0.231834        0        
C1        C        0.666667        0.018519        0.231834        0        
C2        C        0.708333        0.074075        0.231834        0        
C3        C        0.666667        0.092592        0.231834        0        
C4        C        0.708333        0.037037        0.231834        0        
C1        C        0.666667        0.12963        0.231834        0        
C2        C        0.708333        0.185185        0.231834        0        
C3        C        0.666667        0.203703        0.231834        0        
C4        C        0.708333        0.148148        0.231834        0        
C1        C        0.666667        0.24074099999999998        0.231834        0        
C2        C        0.708333        0.296297        0.231834        0        
C3        C        0.666667        0.314815        0.231834        0        
C4        C        0.708333        0.259259        0.231834        0        
C1        C        0.666667        0.351852        0.231834        0        
C2        C        0.708333        0.407408        0.231834        0        
C3        C        0.666667        0.42592500000000005        0.231834        0        
C4        C        0.708333        0.37037        0.231834        0        
C1        C        0.666667        0.46296300000000007        0.231834        0        
C2        C        0.708333        0.518519        0.231834        0        
C3        C        0.666667        0.537037        0.231834        0        
C4        C        0.708333        0.481481        0.231834        0        
C1        C        0.666667        0.574075        0.231834        0        
C2        C        0.708333        0.62963        0.231834        0        
C3        C        0.666667        0.648148        0.231834        0        
C4        C        0.708333        0.592592        0.231834        0        
C_FG        C        0.75        0.018519        0.231834        0.2        
C2        C        0.7916670000000001        0.074075        0.231834        0        
C3        C        0.75        0.092592        0.231834        0        
C4        C        0.7916670000000001        0.037037        0.231834        0        
C_FG        C        0.75        0.12963        0.231834        0.2        
C2        C        0.7916670000000001        0.185185        0.231834        0        
C3        C        0.75        0.203703        0.231834        0        
C4        C        0.7916670000000001        0.148148        0.231834        0        
C_FG        C        0.75        0.24074099999999998        0.231834        0.2        
C2        C        0.7916670000000001        0.296297        0.231834        0        
C3        C        0.75        0.314815        0.231834        0        
C4        C        0.7916670000000001        0.259259        0.231834        0        
C_FG        C        0.75        0.351852        0.231834        0.2        
C2        C        0.7916670000000001        0.407408        0.231834        0        
C3        C        0.75        0.42592500000000005        0.231834        0        
C4        C        0.7916670000000001        0.37037        0.231834        0        
C_FG        C        0.75        0.46296300000000007        0.231834        0.2        
C2        C        0.7916670000000001        0.518519        0.231834        0        
C3        C        0.75        0.537037        0.231834        0        
C4        C        0.7916670000000001        0.481481        0.231834        0        
C_FG        C        0.75        0.574075        0.231834        0.2        
C2        C        0.7916670000000001        0.62963        0.231834        0        
C3        C        0.75        0.648148        0.231834        0        
C4        C        0.7916670000000001        0.592592        0.231834        0        
C1        C        0.833333        0.018519        0.231834        0        
C2        C        0.875        0.074075        0.231834        0        
C3        C        0.833333        0.092592        0.231834        0        
C4        C        0.875        0.037037        0.231834        0        
C1        C        0.833333        0.12963        0.231834        0        
C2        C        0.875        0.185185        0.231834        0        
C3        C        0.833333        0.203703        0.231834        0        
C4        C        0.875        0.148148        0.231834        0        
C1        C        0.833333        0.24074099999999998        0.231834        0        
C2        C        0.875        0.296297        0.231834        0        
C3        C        0.833333        0.314815        0.231834        0        
C4        C        0.875        0.259259        0.231834        0        
C1        C        0.833333        0.351852        0.231834        0        
C2        C        0.875        0.407408        0.231834        0        
C3        C        0.833333        0.42592500000000005        0.231834        0        
C4        C        0.875        0.37037        0.231834        0        
C1        C        0.833333        0.46296300000000007        0.231834        0        
C2        C        0.875        0.518519        0.231834        0        
C3        C        0.833333        0.537037        0.231834        0        
C4        C        0.875        0.481481        0.231834        0        
C1        C        0.833333        0.574075        0.231834        0        
C2        C        0.875        0.62963        0.231834        0        
C3        C        0.833333        0.648148        0.231834        0        
C4        C        0.875        0.592592        0.231834        0        
C_FG        C        0.916667        0.018519        0.231834        0.2        
C2        C        0.958333        0.074075        0.231834        0        
C3        C        0.916667        0.092592        0.231834        0        
C4        C        0.958333        0.037037        0.231834        0        
C_FG        C        0.916667        0.12963        0.231834        0.2        
C2        C        0.958333        0.185185        0.231834        0        
C3        C        0.916667        0.203703        0.231834        0        
C4        C        0.958333        0.148148        0.231834        0        
C_FG        C        0.916667        0.24074099999999998        0.231834        0.2        
C2        C        0.958333        0.296297        0.231834        0        
C3        C        0.916667        0.314815        0.231834        0        
C4        C        0.958333        0.259259        0.231834        0        
C_FG        C        0.916667        0.351852        0.231834        0.2        
C2        C        0.958333        0.407408        0.231834        0        
C3        C        0.916667        0.42592500000000005        0.231834        0        
C4        C        0.958333        0.37037        0.231834        0        
C_FG        C        0.916667        0.46296300000000007        0.231834        0.2        
C2        C        0.958333        0.518519        0.231834        0        
C3        C        0.916667        0.537037        0.231834        0        
C4        C        0.958333        0.481481        0.231834        0        
C_FG        C        0.916667        0.574075        0.231834        0.2        
C2        C        0.958333        0.62963        0.231834        0        
C3        C        0.916667        0.648148        0.231834        0        
C4        C        0.958333        0.592592        0.231834        0        
C1        C        0.0        0.685186        0.231834        0        
C_FG        C        0.083333        0.685186        0.231834        0.2        
C1        C        0.166667        0.685186        0.231834        0        
C_FG        C        0.25        0.685186        0.231834        0.2        
C1        C        0.333333        0.685186        0.231834        0        
C1        C        0.416667        0.685186        0.231834        0        
C1        C        0.5        0.685186        0.231834        0        
C1        C        0.583333        0.685186        0.231834        0        
C1        C        0.666667        0.685186        0.231834        0        
C_FG        C        0.75        0.685186        0.231834        0.2        
C1        C        0.833333        0.685186        0.231834        0        
C_FG        C        0.916667        0.685186        0.231834        0.2        
C2        C        0.041667        0.740741        0.231834        0        
C2        C        0.125        0.740741        0.231834        0        
C2        C        0.208333        0.740741        0.231834        0        
C2        C        0.291667        0.740741        0.231834        0        
C2        C        0.375        0.740741        0.231834        0        
C2        C        0.458333        0.740741        0.231834        0        
C2        C        0.541667        0.740741        0.231834        0        
C2        C        0.625        0.740741        0.231834        0        
C2        C        0.708333        0.740741        0.231834        0        
C2        C        0.7916670000000001        0.740741        0.231834        0        
C2        C        0.875        0.740741        0.231834        0        
C2        C        0.958333        0.740741        0.231834        0        
C3        C        0.0        0.759259        0.231834        0        
C3        C        0.083333        0.759259        0.231834        0        
C3        C        0.166667        0.759259        0.231834        0        
C3        C        0.25        0.759259        0.231834        0        
C3        C        0.333333        0.759259        0.231834        0        
C3        C        0.416667        0.759259        0.231834        0        
C3        C        0.5        0.759259        0.231834        0        
C3        C        0.583333        0.759259        0.231834        0        
C3        C        0.666667        0.759259        0.231834        0        
C3        C        0.75        0.759259        0.231834        0        
C3        C        0.833333        0.759259        0.231834        0        
C3        C        0.916667        0.759259        0.231834        0        
C4        C        0.041667        0.703703        0.231834        0        
C4        C        0.125        0.703703        0.231834        0        
C4        C        0.208333        0.703703        0.231834        0        
C4        C        0.291667        0.703703        0.231834        0        
C4        C        0.375        0.703703        0.231834        0        
C4        C        0.458333        0.703703        0.231834        0        
C4        C        0.541667        0.703703        0.231834        0        
C4        C        0.625        0.703703        0.231834        0        
C4        C        0.708333        0.703703        0.231834        0        
C4        C        0.7916670000000001        0.703703        0.231834        0        
C4        C        0.875        0.703703        0.231834        0        
C4        C        0.958333        0.703703        0.231834        0        
C1        C        0.0        0.796297        0.231834        0        
C_FG        C        0.083333        0.796297        0.231834        0.2        
C1        C        0.166667        0.796297        0.231834        0        
C_FG        C        0.25        0.796297        0.231834        0.2        
C1        C        0.333333        0.796297        0.231834        0        
C1        C        0.416667        0.796297        0.231834        0        
C1        C        0.5        0.796297        0.231834        0        
C1        C        0.583333        0.796297        0.231834        0        
C1        C        0.666667        0.796297        0.231834        0        
C_FG        C        0.75        0.796297        0.231834        0.2        
C1        C        0.833333        0.796297        0.231834        0        
C_FG        C        0.916667        0.796297        0.231834        0.2        
C2        C        0.041667        0.851852        0.231834        0        
C2        C        0.125        0.851852        0.231834        0        
C2        C        0.208333        0.851852        0.231834        0        
C2        C        0.291667        0.851852        0.231834        0        
C2        C        0.375        0.851852        0.231834        0        
C2        C        0.458333        0.851852        0.231834        0        
C2        C        0.541667        0.851852        0.231834        0        
C2        C        0.625        0.851852        0.231834        0        
C2        C        0.708333        0.851852        0.231834        0        
C2        C        0.7916670000000001        0.851852        0.231834        0        
C2        C        0.875        0.851852        0.231834        0        
C2        C        0.958333        0.851852        0.231834        0        
C3        C        0.0        0.87037        0.231834        0        
C3        C        0.083333        0.87037        0.231834        0        
C3        C        0.166667        0.87037        0.231834        0        
C3        C        0.25        0.87037        0.231834        0        
C3        C        0.333333        0.87037        0.231834        0        
C3        C        0.416667        0.87037        0.231834        0        
C3        C        0.5        0.87037        0.231834        0        
C3        C        0.583333        0.87037        0.231834        0        
C3        C        0.666667        0.87037        0.231834        0        
C3        C        0.75        0.87037        0.231834        0        
C3        C        0.833333        0.87037        0.231834        0        
C3        C        0.916667        0.87037        0.231834        0        
C4        C        0.041667        0.814814        0.231834        0        
C4        C        0.125        0.814814        0.231834        0        
C4        C        0.208333        0.814814        0.231834        0        
C4        C        0.291667        0.814814        0.231834        0        
C4        C        0.375        0.814814        0.231834        0        
C4        C        0.458333        0.814814        0.231834        0        
C4        C        0.541667        0.814814        0.231834        0        
C4        C        0.625        0.814814        0.231834        0        
C4        C        0.708333        0.814814        0.231834        0        
C4        C        0.7916670000000001        0.814814        0.231834        0        
C4        C        0.875        0.814814        0.231834        0        
C4        C        0.958333        0.814814        0.231834        0        
C1        C        0.0        0.907408        0.231834        0        
C_FG        C        0.083333        0.907408        0.231834        0.2        
C1        C        0.166667        0.907408        0.231834        0        
C_FG        C        0.25        0.907408        0.231834        0.2        
C1        C        0.333333        0.907408        0.231834        0        
C1        C        0.416667        0.907408        0.231834        0        
C1        C        0.5        0.907408        0.231834        0        
C1        C        0.583333        0.907408        0.231834        0        
C1        C        0.666667        0.907408        0.231834        0        
C_FG        C        0.75        0.907408        0.231834        0.2        
C1        C        0.833333        0.907408        0.231834        0        
C_FG        C        0.916667        0.907408        0.231834        0.2        
C2        C        0.041667        0.962963        0.231834        0        
C2        C        0.125        0.962963        0.231834        0        
C2        C        0.208333        0.962963        0.231834        0        
C2        C        0.291667        0.962963        0.231834        0        
C2        C        0.375        0.962963        0.231834        0        
C2        C        0.458333        0.962963        0.231834        0        
C2        C        0.541667        0.962963        0.231834        0        
C2        C        0.625        0.962963        0.231834        0        
C2        C        0.708333        0.962963        0.231834        0        
C2        C        0.7916670000000001        0.962963        0.231834        0        
C2        C        0.875        0.962963        0.231834        0        
C2        C        0.958333        0.962963        0.231834        0        
C3        C        0.0        0.9814809999999999        0.231834        0        
C3        C        0.083333        0.9814809999999999        0.231834        0        
C3        C        0.166667        0.9814809999999999        0.231834        0        
C3        C        0.25        0.9814809999999999        0.231834        0        
C3        C        0.333333        0.9814809999999999        0.231834        0        
C3        C        0.416667        0.9814809999999999        0.231834        0        
C3        C        0.5        0.9814809999999999        0.231834        0        
C3        C        0.583333        0.9814809999999999        0.231834        0        
C3        C        0.666667        0.9814809999999999        0.231834        0        
C3        C        0.75        0.9814809999999999        0.231834        0        
C3        C        0.833333        0.9814809999999999        0.231834        0        
C3        C        0.916667        0.9814809999999999        0.231834        0        
C4        C        0.041667        0.925925        0.231834        0        
C4        C        0.125        0.925925        0.231834        0        
C4        C        0.208333        0.925925        0.231834        0        
C4        C        0.291667        0.925925        0.231834        0        
C4        C        0.375        0.925925        0.231834        0        
C4        C        0.458333        0.925925        0.231834        0        
C4        C        0.541667        0.925925        0.231834        0        
C4        C        0.625        0.925925        0.231834        0        
C4        C        0.708333        0.925925        0.231834        0        
C4        C        0.7916670000000001        0.925925        0.231834        0        
C4        C        0.875        0.925925        0.231834        0        
C4        C        0.958333        0.925925        0.231834        0        
C1        C        0.0        0.018519        0.768166        0        
C2        C        0.041667        0.074075        0.768166        0        
C3        C        0.0        0.092592        0.768166        0        
C4        C        0.041667        0.037037        0.768166        0        
C1        C        0.0        0.12963        0.768166        0        
C2        C        0.041667        0.185185        0.768166        0        
C3        C        0.0        0.203703        0.768166        0        
C4        C        0.041667        0.148148        0.768166        0        
C1        C        0.0        0.24074099999999998        0.768166        0        
C2        C        0.041667        0.296297        0.768166        0        
C3        C        0.0        0.314815        0.768166        0        
C4        C        0.041667        0.259259        0.768166        0        
C1        C        0.0        0.351852        0.768166        0        
C2        C        0.041667        0.407408        0.768166        0        
C3        C        0.0        0.42592500000000005        0.768166        0        
C4        C        0.041667        0.37037        0.768166        0        
C1        C        0.0        0.46296300000000007        0.768166        0        
C2        C        0.041667        0.518519        0.768166        0        
C3        C        0.0        0.537037        0.768166        0        
C4        C        0.041667        0.481481        0.768166        0        
C1        C        0.0        0.574075        0.768166        0        
C2        C        0.041667        0.62963        0.768166        0        
C3        C        0.0        0.648148        0.768166        0        
C4        C        0.041667        0.592592        0.768166        0        
C_FG        C        0.083333        0.018519        0.768166        0.2        
C2        C        0.125        0.074075        0.768166        0        
C3        C        0.083333        0.092592        0.768166        0        
C4        C        0.125        0.037037        0.768166        0        
C_FG        C        0.083333        0.12963        0.768166        0.2        
C2        C        0.125        0.185185        0.768166        0        
C3        C        0.083333        0.203703        0.768166        0        
C4        C        0.125        0.148148        0.768166        0        
C_FG        C        0.083333        0.24074099999999998        0.768166        0.2        
C2        C        0.125        0.296297        0.768166        0        
C3        C        0.083333        0.314815        0.768166        0        
C4        C        0.125        0.259259        0.768166        0        
C_FG        C        0.083333        0.351852        0.768166        0.2        
C2        C        0.125        0.407408        0.768166        0        
C3        C        0.083333        0.42592500000000005        0.768166        0        
C4        C        0.125        0.37037        0.768166        0        
C_FG        C        0.083333        0.46296300000000007        0.768166        0.2        
C2        C        0.125        0.518519        0.768166        0        
C3        C        0.083333        0.537037        0.768166        0        
C4        C        0.125        0.481481        0.768166        0        
C_FG        C        0.083333        0.574075        0.768166        0.2        
C2        C        0.125        0.62963        0.768166        0        
C3        C        0.083333        0.648148        0.768166        0        
C4        C        0.125        0.592592        0.768166        0        
C1        C        0.166667        0.018519        0.768166        0        
C2        C        0.208333        0.074075        0.768166        0        
C3        C        0.166667        0.092592        0.768166        0        
C4        C        0.208333        0.037037        0.768166        0        
C1        C        0.166667        0.12963        0.768166        0        
C2        C        0.208333        0.185185        0.768166        0        
C3        C        0.166667        0.203703        0.768166        0        
C4        C        0.208333        0.148148        0.768166        0        
C1        C        0.166667        0.24074099999999998        0.768166        0        
C2        C        0.208333        0.296297        0.768166        0        
C3        C        0.166667        0.314815        0.768166        0        
C4        C        0.208333        0.259259        0.768166        0        
C1        C        0.166667        0.351852        0.768166        0        
C2        C        0.208333        0.407408        0.768166        0        
C3        C        0.166667        0.42592500000000005        0.768166        0        
C4        C        0.208333        0.37037        0.768166        0        
C1        C        0.166667        0.46296300000000007        0.768166        0        
C2        C        0.208333        0.518519        0.768166        0        
C3        C        0.166667        0.537037        0.768166        0        
C4        C        0.208333        0.481481        0.768166        0        
C1        C        0.166667        0.574075        0.768166        0        
C2        C        0.208333        0.62963        0.768166        0        
C3        C        0.166667        0.648148        0.768166        0        
C4        C        0.208333        0.592592        0.768166        0        
C_FG        C        0.25        0.018519        0.768166        0.2        
C2        C        0.291667        0.074075        0.768166        0        
C3        C        0.25        0.092592        0.768166        0        
C4        C        0.291667        0.037037        0.768166        0        
C_FG        C        0.25        0.12963        0.768166        0.2        
C2        C        0.291667        0.185185        0.768166        0        
C3        C        0.25        0.203703        0.768166        0        
C4        C        0.291667        0.148148        0.768166        0        
C_FG        C        0.25        0.24074099999999998        0.768166        0.2        
C2        C        0.291667        0.296297        0.768166        0        
C3        C        0.25        0.314815        0.768166        0        
C4        C        0.291667        0.259259        0.768166        0        
C_FG        C        0.25        0.351852        0.768166        0.2        
C2        C        0.291667        0.407408        0.768166        0        
C3        C        0.25        0.42592500000000005        0.768166        0        
C4        C        0.291667        0.37037        0.768166        0        
C_FG        C        0.25        0.46296300000000007        0.768166        0.2        
C2        C        0.291667        0.518519        0.768166        0        
C3        C        0.25        0.537037        0.768166        0        
C4        C        0.291667        0.481481        0.768166        0        
C_FG        C        0.25        0.574075        0.768166        0.2        
C2        C        0.291667        0.62963        0.768166        0        
C3        C        0.25        0.648148        0.768166        0        
C4        C        0.291667        0.592592        0.768166        0        
C1        C        0.333333        0.018519        0.768166        0        
C2        C        0.375        0.074075        0.768166        0        
C3        C        0.333333        0.092592        0.768166        0        
C4        C        0.375        0.037037        0.768166        0        
C1        C        0.333333        0.12963        0.768166        0        
C2        C        0.375        0.185185        0.768166        0        
C3        C        0.333333        0.203703        0.768166        0        
C4        C        0.375        0.148148        0.768166        0        
C1        C        0.333333        0.24074099999999998        0.768166        0        
C2        C        0.375        0.296297        0.768166        0        
C3        C        0.333333        0.314815        0.768166        0        
C4        C        0.375        0.259259        0.768166        0        
C1        C        0.333333        0.351852        0.768166        0        
C2        C        0.375        0.407408        0.768166        0        
C3        C        0.333333        0.42592500000000005        0.768166        0        
C4        C        0.375        0.37037        0.768166        0        
C1        C        0.333333        0.46296300000000007        0.768166        0        
C2        C        0.375        0.518519        0.768166        0        
C3        C        0.333333        0.537037        0.768166        0        
C4        C        0.375        0.481481        0.768166        0        
C1        C        0.333333        0.574075        0.768166        0        
C2        C        0.375        0.62963        0.768166        0        
C3        C        0.333333        0.648148        0.768166        0        
C4        C        0.375        0.592592        0.768166        0        
C1        C        0.416667        0.018519        0.768166        0        
C2        C        0.458333        0.074075        0.768166        0        
C3        C        0.416667        0.092592        0.768166        0        
C4        C        0.458333        0.037037        0.768166        0        
C1        C        0.416667        0.12963        0.768166        0        
C2        C        0.458333        0.185185        0.768166        0        
C3        C        0.416667        0.203703        0.768166        0        
C4        C        0.458333        0.148148        0.768166        0        
C1        C        0.416667        0.24074099999999998        0.768166        0        
C2        C        0.458333        0.296297        0.768166        0        
C3        C        0.416667        0.314815        0.768166        0        
C4        C        0.458333        0.259259        0.768166        0        
C1        C        0.416667        0.351852        0.768166        0        
C2        C        0.458333        0.407408        0.768166        0        
C3        C        0.416667        0.42592500000000005        0.768166        0        
C4        C        0.458333        0.37037        0.768166        0        
C1        C        0.416667        0.46296300000000007        0.768166        0        
C2        C        0.458333        0.518519        0.768166        0        
C3        C        0.416667        0.537037        0.768166        0        
C4        C        0.458333        0.481481        0.768166        0        
C1        C        0.416667        0.574075        0.768166        0        
C2        C        0.458333        0.62963        0.768166        0        
C3        C        0.416667        0.648148        0.768166        0        
C4        C        0.458333        0.592592        0.768166        0        
C1        C        0.5        0.018519        0.768166        0        
C2        C        0.541667        0.074075        0.768166        0        
C3        C        0.5        0.092592        0.768166        0        
C4        C        0.541667        0.037037        0.768166        0        
C1        C        0.5        0.12963        0.768166        0        
C2        C        0.541667        0.185185        0.768166        0        
C3        C        0.5        0.203703        0.768166        0        
C4        C        0.541667        0.148148        0.768166        0        
C1        C        0.5        0.24074099999999998        0.768166        0        
C2        C        0.541667        0.296297        0.768166        0        
C3        C        0.5        0.314815        0.768166        0        
C4        C        0.541667        0.259259        0.768166        0        
C1        C        0.5        0.351852        0.768166        0        
C2        C        0.541667        0.407408        0.768166        0        
C3        C        0.5        0.42592500000000005        0.768166        0        
C4        C        0.541667        0.37037        0.768166        0        
C1        C        0.5        0.46296300000000007        0.768166        0        
C2        C        0.541667        0.518519        0.768166        0        
C3        C        0.5        0.537037        0.768166        0        
C4        C        0.541667        0.481481        0.768166        0        
C1        C        0.5        0.574075        0.768166        0        
C2        C        0.541667        0.62963        0.768166        0        
C3        C        0.5        0.648148        0.768166        0        
C4        C        0.541667        0.592592        0.768166        0        
C1        C        0.583333        0.018519        0.768166        0        
C2        C        0.625        0.074075        0.768166        0        
C3        C        0.583333        0.092592        0.768166        0        
C4        C        0.625        0.037037        0.768166        0        
C1        C        0.583333        0.12963        0.768166        0        
C2        C        0.625        0.185185        0.768166        0        
C3        C        0.583333        0.203703        0.768166        0        
C4        C        0.625        0.148148        0.768166        0        
C1        C        0.583333        0.24074099999999998        0.768166        0        
C2        C        0.625        0.296297        0.768166        0        
C3        C        0.583333        0.314815        0.768166        0        
C4        C        0.625        0.259259        0.768166        0        
C1        C        0.583333        0.351852        0.768166        0        
C2        C        0.625        0.407408        0.768166        0        
C3        C        0.583333        0.42592500000000005        0.768166        0        
C4        C        0.625        0.37037        0.768166        0        
C1        C        0.583333        0.46296300000000007        0.768166        0        
C2        C        0.625        0.518519        0.768166        0        
C3        C        0.583333        0.537037        0.768166        0        
C4        C        0.625        0.481481        0.768166        0        
C1        C        0.583333        0.574075        0.768166        0        
C2        C        0.625        0.62963        0.768166        0        
C3        C        0.583333        0.648148        0.768166        0        
C4        C        0.625        0.592592        0.768166        0        
C1        C        0.666667        0.018519        0.768166        0        
C2        C        0.708333        0.074075        0.768166        0        
C3        C        0.666667        0.092592        0.768166        0        
C4        C        0.708333        0.037037        0.768166        0        
C1        C        0.666667        0.12963        0.768166        0        
C2        C        0.708333        0.185185        0.768166        0        
C3        C        0.666667        0.203703        0.768166        0        
C4        C        0.708333        0.148148        0.768166        0        
C1        C        0.666667        0.24074099999999998        0.768166        0        
C2        C        0.708333        0.296297        0.768166        0        
C3        C        0.666667        0.314815        0.768166        0        
C4        C        0.708333        0.259259        0.768166        0        
C1        C        0.666667        0.351852        0.768166        0        
C2        C        0.708333        0.407408        0.768166        0        
C3        C        0.666667        0.42592500000000005        0.768166        0        
C4        C        0.708333        0.37037        0.768166        0        
C1        C        0.666667        0.46296300000000007        0.768166        0        
C2        C        0.708333        0.518519        0.768166        0        
C3        C        0.666667        0.537037        0.768166        0        
C4        C        0.708333        0.481481        0.768166        0        
C1        C        0.666667        0.574075        0.768166        0        
C2        C        0.708333        0.62963        0.768166        0        
C3        C        0.666667        0.648148        0.768166        0        
C4        C        0.708333        0.592592        0.768166        0        
C_FG        C        0.75        0.018519        0.768166        0.2        
C2        C        0.7916670000000001        0.074075        0.768166        0        
C3        C        0.75        0.092592        0.768166        0        
C4        C        0.7916670000000001        0.037037        0.768166        0        
C_FG        C        0.75        0.12963        0.768166        0.2        
C2        C        0.7916670000000001        0.185185        0.768166        0        
C3        C        0.75        0.203703        0.768166        0        
C4        C        0.7916670000000001        0.148148        0.768166        0        
C_FG        C        0.75        0.24074099999999998        0.768166        0.2        
C2        C        0.7916670000000001        0.296297        0.768166        0        
C3        C        0.75        0.314815        0.768166        0        
C4        C        0.7916670000000001        0.259259        0.768166        0        
C_FG        C        0.75        0.351852        0.768166        0.2        
C2        C        0.7916670000000001        0.407408        0.768166        0        
C3        C        0.75        0.42592500000000005        0.768166        0        
C4        C        0.7916670000000001        0.37037        0.768166        0        
C_FG        C        0.75        0.46296300000000007        0.768166        0.2        
C2        C        0.7916670000000001        0.518519        0.768166        0        
C3        C        0.75        0.537037        0.768166        0        
C4        C        0.7916670000000001        0.481481        0.768166        0        
C_FG        C        0.75        0.574075        0.768166        0.2        
C2        C        0.7916670000000001        0.62963        0.768166        0        
C3        C        0.75        0.648148        0.768166        0        
C4        C        0.7916670000000001        0.592592        0.768166        0        
C1        C        0.833333        0.018519        0.768166        0        
C2        C        0.875        0.074075        0.768166        0        
C3        C        0.833333        0.092592        0.768166        0        
C4        C        0.875        0.037037        0.768166        0        
C1        C        0.833333        0.12963        0.768166        0        
C2        C        0.875        0.185185        0.768166        0        
C3        C        0.833333        0.203703        0.768166        0        
C4        C        0.875        0.148148        0.768166        0        
C1        C        0.833333        0.24074099999999998        0.768166        0        
C2        C        0.875        0.296297        0.768166        0        
C3        C        0.833333        0.314815        0.768166        0        
C4        C        0.875        0.259259        0.768166        0        
C1        C        0.833333        0.351852        0.768166        0        
C2        C        0.875        0.407408        0.768166        0        
C3        C        0.833333        0.42592500000000005        0.768166        0        
C4        C        0.875        0.37037        0.768166        0        
C1        C        0.833333        0.46296300000000007        0.768166        0        
C2        C        0.875        0.518519        0.768166        0        
C3        C        0.833333        0.537037        0.768166        0        
C4        C        0.875        0.481481        0.768166        0        
C1        C        0.833333        0.574075        0.768166        0        
C2        C        0.875        0.62963        0.768166        0        
C3        C        0.833333        0.648148        0.768166        0        
C4        C        0.875        0.592592        0.768166        0        
C_FG        C        0.916667        0.018519        0.768166        0.2        
C2        C        0.958333        0.074075        0.768166        0        
C3        C        0.916667        0.092592        0.768166        0        
C4        C        0.958333        0.037037        0.768166        0        
C_FG        C        0.916667        0.12963        0.768166        0.2        
C2        C        0.958333        0.185185        0.768166        0        
C3        C        0.916667        0.203703        0.768166        0        
C4        C        0.958333        0.148148        0.768166        0        
C_FG        C        0.916667        0.24074099999999998        0.768166        0.2        
C2        C        0.958333        0.296297        0.768166        0        
C3        C        0.916667        0.314815        0.768166        0        
C4        C        0.958333        0.259259        0.768166        0        
C_FG        C        0.916667        0.351852        0.768166        0.2        
C2        C        0.958333        0.407408        0.768166        0        
C3        C        0.916667        0.42592500000000005        0.768166        0        
C4        C        0.958333        0.37037        0.768166        0        
C_FG        C        0.916667        0.46296300000000007        0.768166        0.2        
C2        C        0.958333        0.518519        0.768166        0        
C3        C        0.916667        0.537037        0.768166        0        
C4        C        0.958333        0.481481        0.768166        0        
C_FG        C        0.916667        0.574075        0.768166        0.2        
C2        C        0.958333        0.62963        0.768166        0        
C3        C        0.916667        0.648148        0.768166        0        
C4        C        0.958333        0.592592        0.768166        0        
C1        C        0.0        0.685186        0.768166        0        
C_FG        C        0.083333        0.685186        0.768166        0.2        
C1        C        0.166667        0.685186        0.768166        0        
C_FG        C        0.25        0.685186        0.768166        0.2        
C1        C        0.333333        0.685186        0.768166        0        
C1        C        0.416667        0.685186        0.768166        0        
C1        C        0.5        0.685186        0.768166        0        
C1        C        0.583333        0.685186        0.768166        0        
C1        C        0.666667        0.685186        0.768166        0        
C_FG        C        0.75        0.685186        0.768166        0.2        
C1        C        0.833333        0.685186        0.768166        0        
C_FG        C        0.916667        0.685186        0.768166        0.2        
C2        C        0.041667        0.740741        0.768166        0        
C2        C        0.125        0.740741        0.768166        0        
C2        C        0.208333        0.740741        0.768166        0        
C2        C        0.291667        0.740741        0.768166        0        
C2        C        0.375        0.740741        0.768166        0        
C2        C        0.458333        0.740741        0.768166        0        
C2        C        0.541667        0.740741        0.768166        0        
C2        C        0.625        0.740741        0.768166        0        
C2        C        0.708333        0.740741        0.768166        0        
C2        C        0.7916670000000001        0.740741        0.768166        0        
C2        C        0.875        0.740741        0.768166        0        
C2        C        0.958333        0.740741        0.768166        0        
C3        C        0.0        0.759259        0.768166        0        
C3        C        0.083333        0.759259        0.768166        0        
C3        C        0.166667        0.759259        0.768166        0        
C3        C        0.25        0.759259        0.768166        0        
C3        C        0.333333        0.759259        0.768166        0        
C3        C        0.416667        0.759259        0.768166        0        
C3        C        0.5        0.759259        0.768166        0        
C3        C        0.583333        0.759259        0.768166        0        
C3        C        0.666667        0.759259        0.768166        0        
C3        C        0.75        0.759259        0.768166        0        
C3        C        0.833333        0.759259        0.768166        0        
C3        C        0.916667        0.759259        0.768166        0        
C4        C        0.041667        0.703703        0.768166        0        
C4        C        0.125        0.703703        0.768166        0        
C4        C        0.208333        0.703703        0.768166        0        
C4        C        0.291667        0.703703        0.768166        0        
C4        C        0.375        0.703703        0.768166        0        
C4        C        0.458333        0.703703        0.768166        0        
C4        C        0.541667        0.703703        0.768166        0        
C4        C        0.625        0.703703        0.768166        0        
C4        C        0.708333        0.703703        0.768166        0        
C4        C        0.7916670000000001        0.703703        0.768166        0        
C4        C        0.875        0.703703        0.768166        0        
C4        C        0.958333        0.703703        0.768166        0        
C1        C        0.0        0.796297        0.768166        0        
C_FG        C        0.083333        0.796297        0.768166        0.2        
C1        C        0.166667        0.796297        0.768166        0        
C_FG        C        0.25        0.796297        0.768166        0.2        
C1        C        0.333333        0.796297        0.768166        0        
C1        C        0.416667        0.796297        0.768166        0        
C1        C        0.5        0.796297        0.768166        0        
C1        C        0.583333        0.796297        0.768166        0        
C1        C        0.666667        0.796297        0.768166        0        
C_FG        C        0.75        0.796297        0.768166        0.2        
C1        C        0.833333        0.796297        0.768166        0        
C_FG        C        0.916667        0.796297        0.768166        0.2        
C2        C        0.041667        0.851852        0.768166        0        
C2        C        0.125        0.851852        0.768166        0        
C2        C        0.208333        0.851852        0.768166        0        
C2        C        0.291667        0.851852        0.768166        0        
C2        C        0.375        0.851852        0.768166        0        
C2        C        0.458333        0.851852        0.768166        0        
C2        C        0.541667        0.851852        0.768166        0        
C2        C        0.625        0.851852        0.768166        0        
C2        C        0.708333        0.851852        0.768166        0        
C2        C        0.7916670000000001        0.851852        0.768166        0        
C2        C        0.875        0.851852        0.768166        0        
C2        C        0.958333        0.851852        0.768166        0        
C3        C        0.0        0.87037        0.768166        0        
C3        C        0.083333        0.87037        0.768166        0        
C3        C        0.166667        0.87037        0.768166        0        
C3        C        0.25        0.87037        0.768166        0        
C3        C        0.333333        0.87037        0.768166        0        
C3        C        0.416667        0.87037        0.768166        0        
C3        C        0.5        0.87037        0.768166        0        
C3        C        0.583333        0.87037        0.768166        0        
C3        C        0.666667        0.87037        0.768166        0        
C3        C        0.75        0.87037        0.768166        0        
C3        C        0.833333        0.87037        0.768166        0        
C3        C        0.916667        0.87037        0.768166        0        
C4        C        0.041667        0.814814        0.768166        0        
C4        C        0.125        0.814814        0.768166        0        
C4        C        0.208333        0.814814        0.768166        0        
C4        C        0.291667        0.814814        0.768166        0        
C4        C        0.375        0.814814        0.768166        0        
C4        C        0.458333        0.814814        0.768166        0        
C4        C        0.541667        0.814814        0.768166        0        
C4        C        0.625        0.814814        0.768166        0        
C4        C        0.708333        0.814814        0.768166        0        
C4        C        0.7916670000000001        0.814814        0.768166        0        
C4        C        0.875        0.814814        0.768166        0        
C4        C        0.958333        0.814814        0.768166        0        
C1        C        0.0        0.907408        0.768166        0        
C_FG        C        0.083333        0.907408        0.768166        0.2        
C1        C        0.166667        0.907408        0.768166        0        
C_FG        C        0.25        0.907408        0.768166        0.2        
C1        C        0.333333        0.907408        0.768166        0        
C1        C        0.416667        0.907408        0.768166        0        
C1        C        0.5        0.907408        0.768166        0        
C1        C        0.583333        0.907408        0.768166        0        
C1        C        0.666667        0.907408        0.768166        0        
C_FG        C        0.75        0.907408        0.768166        0.2        
C1        C        0.833333        0.907408        0.768166        0        
C_FG        C        0.916667        0.907408        0.768166        0.2        
C2        C        0.041667        0.962963        0.768166        0        
C2        C        0.125        0.962963        0.768166        0        
C2        C        0.208333        0.962963        0.768166        0        
C2        C        0.291667        0.962963        0.768166        0        
C2        C        0.375        0.962963        0.768166        0        
C2        C        0.458333        0.962963        0.768166        0        
C2        C        0.541667        0.962963        0.768166        0        
C2        C        0.625        0.962963        0.768166        0        
C2        C        0.708333        0.962963        0.768166        0        
C2        C        0.7916670000000001        0.962963        0.768166        0        
C2        C        0.875        0.962963        0.768166        0        
C2        C        0.958333        0.962963        0.768166        0        
C3        C        0.0        0.9814809999999999        0.768166        0        
C3        C        0.083333        0.9814809999999999        0.768166        0        
C3        C        0.166667        0.9814809999999999        0.768166        0        
C3        C        0.25        0.9814809999999999        0.768166        0        
C3        C        0.333333        0.9814809999999999        0.768166        0        
C3        C        0.416667        0.9814809999999999        0.768166        0        
C3        C        0.5        0.9814809999999999        0.768166        0        
C3        C        0.583333        0.9814809999999999        0.768166        0        
C3        C        0.666667        0.9814809999999999        0.768166        0        
C3        C        0.75        0.9814809999999999        0.768166        0        
C3        C        0.833333        0.9814809999999999        0.768166        0        
C3        C        0.916667        0.9814809999999999        0.768166        0        
C4        C        0.041667        0.925925        0.768166        0        
C4        C        0.125        0.925925        0.768166        0        
C4        C        0.208333        0.925925        0.768166        0        
C4        C        0.291667        0.925925        0.768166        0        
C4        C        0.375        0.925925        0.768166        0        
C4        C        0.458333        0.925925        0.768166        0        
C4        C        0.541667        0.925925        0.768166        0        
C4        C        0.625        0.925925        0.768166        0        
C4        C        0.708333        0.925925        0.768166        0        
C4        C        0.7916670000000001        0.925925        0.768166        0        
C4        C        0.875        0.925925        0.768166        0        
C4        C        0.958333        0.925925        0.768166        0        
C1        C        0.0        0.018519        0.884083        0        
C2        C        0.041667        0.074075        0.884083        0        
C3        C        0.0        0.092592        0.884083        0        
C4        C        0.041667        0.037037        0.884083        0        
C1        C        0.0        0.12963        0.884083        0        
C2        C        0.041667        0.185185        0.884083        0        
C3        C        0.0        0.203703        0.884083        0        
C4        C        0.041667        0.148148        0.884083        0        
C1        C        0.0        0.24074099999999998        0.884083        0        
C2        C        0.041667        0.296297        0.884083        0        
C3        C        0.0        0.314815        0.884083        0        
C4        C        0.041667        0.259259        0.884083        0        
C1        C        0.0        0.351852        0.884083        0        
C2        C        0.041667        0.407408        0.884083        0        
C3        C        0.0        0.42592500000000005        0.884083        0        
C4        C        0.041667        0.37037        0.884083        0        
C1        C        0.0        0.46296300000000007        0.884083        0        
C2        C        0.041667        0.518519        0.884083        0        
C3        C        0.0        0.537037        0.884083        0        
C4        C        0.041667        0.481481        0.884083        0        
C1        C        0.0        0.574075        0.884083        0        
C2        C        0.041667        0.62963        0.884083        0        
C3        C        0.0        0.648148        0.884083        0        
C4        C        0.041667        0.592592        0.884083        0        
C1        C        0.083333        0.018519        0.884083        0        
C2        C        0.125        0.074075        0.884083        0        
C3        C        0.083333        0.092592        0.884083        0        
C4        C        0.125        0.037037        0.884083        0        
C1        C        0.083333        0.12963        0.884083        0        
C2        C        0.125        0.185185        0.884083        0        
C3        C        0.083333        0.203703        0.884083        0        
C4        C        0.125        0.148148        0.884083        0        
C1        C        0.083333        0.24074099999999998        0.884083        0        
C2        C        0.125        0.296297        0.884083        0        
C3        C        0.083333        0.314815        0.884083        0        
C4        C        0.125        0.259259        0.884083        0        
C1        C        0.083333        0.351852        0.884083        0        
C2        C        0.125        0.407408        0.884083        0        
C3        C        0.083333        0.42592500000000005        0.884083        0        
C4        C        0.125        0.37037        0.884083        0        
C1        C        0.083333        0.46296300000000007        0.884083        0        
C2        C        0.125        0.518519        0.884083        0        
C3        C        0.083333        0.537037        0.884083        0        
C4        C        0.125        0.481481        0.884083        0        
C1        C        0.083333        0.574075        0.884083        0        
C2        C        0.125        0.62963        0.884083        0        
C3        C        0.083333        0.648148        0.884083        0        
C4        C        0.125        0.592592        0.884083        0        
C1        C        0.166667        0.018519        0.884083        0        
C2        C        0.208333        0.074075        0.884083        0        
C3        C        0.166667        0.092592        0.884083        0        
C4        C        0.208333        0.037037        0.884083        0        
C1        C        0.166667        0.12963        0.884083        0        
C2        C        0.208333        0.185185        0.884083        0        
C3        C        0.166667        0.203703        0.884083        0        
C4        C        0.208333        0.148148        0.884083        0        
C1        C        0.166667        0.24074099999999998        0.884083        0        
C2        C        0.208333        0.296297        0.884083        0        
C3        C        0.166667        0.314815        0.884083        0        
C4        C        0.208333        0.259259        0.884083        0        
C1        C        0.166667        0.351852        0.884083        0        
C2        C        0.208333        0.407408        0.884083        0        
C3        C        0.166667        0.42592500000000005        0.884083        0        
C4        C        0.208333        0.37037        0.884083        0        
C1        C        0.166667        0.46296300000000007        0.884083        0        
C2        C        0.208333        0.518519        0.884083        0        
C3        C        0.166667        0.537037        0.884083        0        
C4        C        0.208333        0.481481        0.884083        0        
C1        C        0.166667        0.574075        0.884083        0        
C2        C        0.208333        0.62963        0.884083        0        
C3        C        0.166667        0.648148        0.884083        0        
C4        C        0.208333        0.592592        0.884083        0        
C1        C        0.25        0.018519        0.884083        0        
C2        C        0.291667        0.074075        0.884083        0        
C3        C        0.25        0.092592        0.884083        0        
C4        C        0.291667        0.037037        0.884083        0        
C1        C        0.25        0.12963        0.884083        0        
C2        C        0.291667        0.185185        0.884083        0        
C3        C        0.25        0.203703        0.884083        0        
C4        C        0.291667        0.148148        0.884083        0        
C1        C        0.25        0.24074099999999998        0.884083        0        
C2        C        0.291667        0.296297        0.884083        0        
C3        C        0.25        0.314815        0.884083        0        
C4        C        0.291667        0.259259        0.884083        0        
C1        C        0.25        0.351852        0.884083        0        
C2        C        0.291667        0.407408        0.884083        0        
C3        C        0.25        0.42592500000000005        0.884083        0        
C4        C        0.291667        0.37037        0.884083        0        
C1        C        0.25        0.46296300000000007        0.884083        0        
C2        C        0.291667        0.518519        0.884083        0        
C3        C        0.25        0.537037        0.884083        0        
C4        C        0.291667        0.481481        0.884083        0        
C1        C        0.25        0.574075        0.884083        0        
C2        C        0.291667        0.62963        0.884083        0        
C3        C        0.25        0.648148        0.884083        0        
C4        C        0.291667        0.592592        0.884083        0        
C1        C        0.333333        0.018519        0.884083        0        
C2        C        0.375        0.074075        0.884083        0        
C3        C        0.333333        0.092592        0.884083        0        
C4        C        0.375        0.037037        0.884083        0        
C1        C        0.333333        0.12963        0.884083        0        
C2        C        0.375        0.185185        0.884083        0        
C3        C        0.333333        0.203703        0.884083        0        
C4        C        0.375        0.148148        0.884083        0        
C1        C        0.333333        0.24074099999999998        0.884083        0        
C2        C        0.375        0.296297        0.884083        0        
C3        C        0.333333        0.314815        0.884083        0        
C4        C        0.375        0.259259        0.884083        0        
C1        C        0.333333        0.351852        0.884083        0        
C2        C        0.375        0.407408        0.884083        0        
C3        C        0.333333        0.42592500000000005        0.884083        0        
C4        C        0.375        0.37037        0.884083        0        
C1        C        0.333333        0.46296300000000007        0.884083        0        
C2        C        0.375        0.518519        0.884083        0        
C3        C        0.333333        0.537037        0.884083        0        
C4        C        0.375        0.481481        0.884083        0        
C1        C        0.333333        0.574075        0.884083        0        
C2        C        0.375        0.62963        0.884083        0        
C3        C        0.333333        0.648148        0.884083        0        
C4        C        0.375        0.592592        0.884083        0        
C1        C        0.416667        0.018519        0.884083        0        
C2        C        0.458333        0.074075        0.884083        0        
C3        C        0.416667        0.092592        0.884083        0        
C4        C        0.458333        0.037037        0.884083        0        
C1        C        0.416667        0.12963        0.884083        0        
C2        C        0.458333        0.185185        0.884083        0        
C3        C        0.416667        0.203703        0.884083        0        
C4        C        0.458333        0.148148        0.884083        0        
C1        C        0.416667        0.24074099999999998        0.884083        0        
C2        C        0.458333        0.296297        0.884083        0        
C3        C        0.416667        0.314815        0.884083        0        
C4        C        0.458333        0.259259        0.884083        0        
C1        C        0.416667        0.351852        0.884083        0        
C2        C        0.458333        0.407408        0.884083        0        
C3        C        0.416667        0.42592500000000005        0.884083        0        
C4        C        0.458333        0.37037        0.884083        0        
C1        C        0.416667        0.46296300000000007        0.884083        0        
C2        C        0.458333        0.518519        0.884083        0        
C3        C        0.416667        0.537037        0.884083        0        
C4        C        0.458333        0.481481        0.884083        0        
C1        C        0.416667        0.574075        0.884083        0        
C2        C        0.458333        0.62963        0.884083        0        
C3        C        0.416667        0.648148        0.884083        0        
C4        C        0.458333        0.592592        0.884083        0        
C1        C        0.5        0.018519        0.884083        0        
C2        C        0.541667        0.074075        0.884083        0        
C3        C        0.5        0.092592        0.884083        0        
C4        C        0.541667        0.037037        0.884083        0        
C1        C        0.5        0.12963        0.884083        0        
C2        C        0.541667        0.185185        0.884083        0        
C3        C        0.5        0.203703        0.884083        0        
C4        C        0.541667        0.148148        0.884083        0        
C1        C        0.5        0.24074099999999998        0.884083        0        
C2        C        0.541667        0.296297        0.884083        0        
C3        C        0.5        0.314815        0.884083        0        
C4        C        0.541667        0.259259        0.884083        0        
C1        C        0.5        0.351852        0.884083        0        
C2        C        0.541667        0.407408        0.884083        0        
C3        C        0.5        0.42592500000000005        0.884083        0        
C4        C        0.541667        0.37037        0.884083        0        
C1        C        0.5        0.46296300000000007        0.884083        0        
C2        C        0.541667        0.518519        0.884083        0        
C3        C        0.5        0.537037        0.884083        0        
C4        C        0.541667        0.481481        0.884083        0        
C1        C        0.5        0.574075        0.884083        0        
C2        C        0.541667        0.62963        0.884083        0        
C3        C        0.5        0.648148        0.884083        0        
C4        C        0.541667        0.592592        0.884083        0        
C1        C        0.583333        0.018519        0.884083        0        
C2        C        0.625        0.074075        0.884083        0        
C3        C        0.583333        0.092592        0.884083        0        
C4        C        0.625        0.037037        0.884083        0        
C1        C        0.583333        0.12963        0.884083        0        
C2        C        0.625        0.185185        0.884083        0        
C3        C        0.583333        0.203703        0.884083        0        
C4        C        0.625        0.148148        0.884083        0        
C1        C        0.583333        0.24074099999999998        0.884083        0        
C2        C        0.625        0.296297        0.884083        0        
C3        C        0.583333        0.314815        0.884083        0        
C4        C        0.625        0.259259        0.884083        0        
C1        C        0.583333        0.351852        0.884083        0        
C2        C        0.625        0.407408        0.884083        0        
C3        C        0.583333        0.42592500000000005        0.884083        0        
C4        C        0.625        0.37037        0.884083        0        
C1        C        0.583333        0.46296300000000007        0.884083        0        
C2        C        0.625        0.518519        0.884083        0        
C3        C        0.583333        0.537037        0.884083        0        
C4        C        0.625        0.481481        0.884083        0        
C1        C        0.583333        0.574075        0.884083        0        
C2        C        0.625        0.62963        0.884083        0        
C3        C        0.583333        0.648148        0.884083        0        
C4        C        0.625        0.592592        0.884083        0        
C1        C        0.666667        0.018519        0.884083        0        
C2        C        0.708333        0.074075        0.884083        0        
C3        C        0.666667        0.092592        0.884083        0        
C4        C        0.708333        0.037037        0.884083        0        
C1        C        0.666667        0.12963        0.884083        0        
C2        C        0.708333        0.185185        0.884083        0        
C3        C        0.666667        0.203703        0.884083        0        
C4        C        0.708333        0.148148        0.884083        0        
C1        C        0.666667        0.24074099999999998        0.884083        0        
C2        C        0.708333        0.296297        0.884083        0        
C3        C        0.666667        0.314815        0.884083        0        
C4        C        0.708333        0.259259        0.884083        0        
C1        C        0.666667        0.351852        0.884083        0        
C2        C        0.708333        0.407408        0.884083        0        
C3        C        0.666667        0.42592500000000005        0.884083        0        
C4        C        0.708333        0.37037        0.884083        0        
C1        C        0.666667        0.46296300000000007        0.884083        0        
C2        C        0.708333        0.518519        0.884083        0        
C3        C        0.666667        0.537037        0.884083        0        
C4        C        0.708333        0.481481        0.884083        0        
C1        C        0.666667        0.574075        0.884083        0        
C2        C        0.708333        0.62963        0.884083        0        
C3        C        0.666667        0.648148        0.884083        0        
C4        C        0.708333        0.592592        0.884083        0        
C1        C        0.75        0.018519        0.884083        0        
C2        C        0.7916670000000001        0.074075        0.884083        0        
C3        C        0.75        0.092592        0.884083        0        
C4        C        0.7916670000000001        0.037037        0.884083        0        
C1        C        0.75        0.12963        0.884083        0        
C2        C        0.7916670000000001        0.185185        0.884083        0        
C3        C        0.75        0.203703        0.884083        0        
C4        C        0.7916670000000001        0.148148        0.884083        0        
C1        C        0.75        0.24074099999999998        0.884083        0        
C2        C        0.7916670000000001        0.296297        0.884083        0        
C3        C        0.75        0.314815        0.884083        0        
C4        C        0.7916670000000001        0.259259        0.884083        0        
C1        C        0.75        0.351852        0.884083        0        
C2        C        0.7916670000000001        0.407408        0.884083        0        
C3        C        0.75        0.42592500000000005        0.884083        0        
C4        C        0.7916670000000001        0.37037        0.884083        0        
C1        C        0.75        0.46296300000000007        0.884083        0        
C2        C        0.7916670000000001        0.518519        0.884083        0        
C3        C        0.75        0.537037        0.884083        0        
C4        C        0.7916670000000001        0.481481        0.884083        0        
C1        C        0.75        0.574075        0.884083        0        
C2        C        0.7916670000000001        0.62963        0.884083        0        
C3        C        0.75        0.648148        0.884083        0        
C4        C        0.7916670000000001        0.592592        0.884083        0        
C1        C        0.833333        0.018519        0.884083        0        
C2        C        0.875        0.074075        0.884083        0        
C3        C        0.833333        0.092592        0.884083        0        
C4        C        0.875        0.037037        0.884083        0        
C1        C        0.833333        0.12963        0.884083        0        
C2        C        0.875        0.185185        0.884083        0        
C3        C        0.833333        0.203703        0.884083        0        
C4        C        0.875        0.148148        0.884083        0        
C1        C        0.833333        0.24074099999999998        0.884083        0        
C2        C        0.875        0.296297        0.884083        0        
C3        C        0.833333        0.314815        0.884083        0        
C4        C        0.875        0.259259        0.884083        0        
C1        C        0.833333        0.351852        0.884083        0        
C2        C        0.875        0.407408        0.884083        0        
C3        C        0.833333        0.42592500000000005        0.884083        0        
C4        C        0.875        0.37037        0.884083        0        
C1        C        0.833333        0.46296300000000007        0.884083        0        
C2        C        0.875        0.518519        0.884083        0        
C3        C        0.833333        0.537037        0.884083        0        
C4        C        0.875        0.481481        0.884083        0        
C1        C        0.833333        0.574075        0.884083        0        
C2        C        0.875        0.62963        0.884083        0        
C3        C        0.833333        0.648148        0.884083        0        
C4        C        0.875        0.592592        0.884083        0        
C1        C        0.916667        0.018519        0.884083        0        
C2        C        0.958333        0.074075        0.884083        0        
C3        C        0.916667        0.092592        0.884083        0        
C4        C        0.958333        0.037037        0.884083        0        
C1        C        0.916667        0.12963        0.884083        0        
C2        C        0.958333        0.185185        0.884083        0        
C3        C        0.916667        0.203703        0.884083        0        
C4        C        0.958333        0.148148        0.884083        0        
C1        C        0.916667        0.24074099999999998        0.884083        0        
C2        C        0.958333        0.296297        0.884083        0        
C3        C        0.916667        0.314815        0.884083        0        
C4        C        0.958333        0.259259        0.884083        0        
C1        C        0.916667        0.351852        0.884083        0        
C2        C        0.958333        0.407408        0.884083        0        
C3        C        0.916667        0.42592500000000005        0.884083        0        
C4        C        0.958333        0.37037        0.884083        0        
C1        C        0.916667        0.46296300000000007        0.884083        0        
C2        C        0.958333        0.518519        0.884083        0        
C3        C        0.916667        0.537037        0.884083        0        
C4        C        0.958333        0.481481        0.884083        0        
C1        C        0.916667        0.574075        0.884083        0        
C2        C        0.958333        0.62963        0.884083        0        
C3        C        0.916667        0.648148        0.884083        0        
C4        C        0.958333        0.592592        0.884083        0        
C1        C        0.0        0.685186        0.884083        0        
C1        C        0.083333        0.685186        0.884083        0        
C1        C        0.166667        0.685186        0.884083        0        
C1        C        0.25        0.685186        0.884083        0        
C1        C        0.333333        0.685186        0.884083        0        
C1        C        0.416667        0.685186        0.884083        0        
C1        C        0.5        0.685186        0.884083        0        
C1        C        0.583333        0.685186        0.884083        0        
C1        C        0.666667        0.685186        0.884083        0        
C1        C        0.75        0.685186        0.884083        0        
C1        C        0.833333        0.685186        0.884083        0        
C1        C        0.916667        0.685186        0.884083        0        
C2        C        0.041667        0.740741        0.884083        0        
C2        C        0.125        0.740741        0.884083        0        
C2        C        0.208333        0.740741        0.884083        0        
C2        C        0.291667        0.740741        0.884083        0        
C2        C        0.375        0.740741        0.884083        0        
C2        C        0.458333        0.740741        0.884083        0        
C2        C        0.541667        0.740741        0.884083        0        
C2        C        0.625        0.740741        0.884083        0        
C2        C        0.708333        0.740741        0.884083        0        
C2        C        0.7916670000000001        0.740741        0.884083        0        
C2        C        0.875        0.740741        0.884083        0        
C2        C        0.958333        0.740741        0.884083        0        
C3        C        0.0        0.759259        0.884083        0        
C3        C        0.083333        0.759259        0.884083        0        
C3        C        0.166667        0.759259        0.884083        0        
C3        C        0.25        0.759259        0.884083        0        
C3        C        0.333333        0.759259        0.884083        0        
C3        C        0.416667        0.759259        0.884083        0        
C3        C        0.5        0.759259        0.884083        0        
C3        C        0.583333        0.759259        0.884083        0        
C3        C        0.666667        0.759259        0.884083        0        
C3        C        0.75        0.759259        0.884083        0        
C3        C        0.833333        0.759259        0.884083        0        
C3        C        0.916667        0.759259        0.884083        0        
C4        C        0.041667        0.703703        0.884083        0        
C4        C        0.125        0.703703        0.884083        0        
C4        C        0.208333        0.703703        0.884083        0        
C4        C        0.291667        0.703703        0.884083        0        
C4        C        0.375        0.703703        0.884083        0        
C4        C        0.458333        0.703703        0.884083        0        
C4        C        0.541667        0.703703        0.884083        0        
C4        C        0.625        0.703703        0.884083        0        
C4        C        0.708333        0.703703        0.884083        0        
C4        C        0.7916670000000001        0.703703        0.884083        0        
C4        C        0.875        0.703703        0.884083        0        
C4        C        0.958333        0.703703        0.884083        0        
C1        C        0.0        0.796297        0.884083        0        
C1        C        0.083333        0.796297        0.884083        0        
C1        C        0.166667        0.796297        0.884083        0        
C1        C        0.25        0.796297        0.884083        0        
C1        C        0.333333        0.796297        0.884083        0        
C1        C        0.416667        0.796297        0.884083        0        
C1        C        0.5        0.796297        0.884083        0        
C1        C        0.583333        0.796297        0.884083        0        
C1        C        0.666667        0.796297        0.884083        0        
C1        C        0.75        0.796297        0.884083        0        
C1        C        0.833333        0.796297        0.884083        0        
C1        C        0.916667        0.796297        0.884083        0        
C2        C        0.041667        0.851852        0.884083        0        
C2        C        0.125        0.851852        0.884083        0        
C2        C        0.208333        0.851852        0.884083        0        
C2        C        0.291667        0.851852        0.884083        0        
C2        C        0.375        0.851852        0.884083        0        
C2        C        0.458333        0.851852        0.884083        0        
C2        C        0.541667        0.851852        0.884083        0        
C2        C        0.625        0.851852        0.884083        0        
C2        C        0.708333        0.851852        0.884083        0        
C2        C        0.7916670000000001        0.851852        0.884083        0        
C2        C        0.875        0.851852        0.884083        0        
C2        C        0.958333        0.851852        0.884083        0        
C3        C        0.0        0.87037        0.884083        0        
C3        C        0.083333        0.87037        0.884083        0        
C3        C        0.166667        0.87037        0.884083        0        
C3        C        0.25        0.87037        0.884083        0        
C3        C        0.333333        0.87037        0.884083        0        
C3        C        0.416667        0.87037        0.884083        0        
C3        C        0.5        0.87037        0.884083        0        
C3        C        0.583333        0.87037        0.884083        0        
C3        C        0.666667        0.87037        0.884083        0        
C3        C        0.75        0.87037        0.884083        0        
C3        C        0.833333        0.87037        0.884083        0        
C3        C        0.916667        0.87037        0.884083        0        
C4        C        0.041667        0.814814        0.884083        0        
C4        C        0.125        0.814814        0.884083        0        
C4        C        0.208333        0.814814        0.884083        0        
C4        C        0.291667        0.814814        0.884083        0        
C4        C        0.375        0.814814        0.884083        0        
C4        C        0.458333        0.814814        0.884083        0        
C4        C        0.541667        0.814814        0.884083        0        
C4        C        0.625        0.814814        0.884083        0        
C4        C        0.708333        0.814814        0.884083        0        
C4        C        0.7916670000000001        0.814814        0.884083        0        
C4        C        0.875        0.814814        0.884083        0        
C4        C        0.958333        0.814814        0.884083        0        
C1        C        0.0        0.907408        0.884083        0        
C1        C        0.083333        0.907408        0.884083        0        
C1        C        0.166667        0.907408        0.884083        0        
C1        C        0.25        0.907408        0.884083        0        
C1        C        0.333333        0.907408        0.884083        0        
C1        C        0.416667        0.907408        0.884083        0        
C1        C        0.5        0.907408        0.884083        0        
C1        C        0.583333        0.907408        0.884083        0        
C1        C        0.666667        0.907408        0.884083        0        
C1        C        0.75        0.907408        0.884083        0        
C1        C        0.833333        0.907408        0.884083        0        
C1        C        0.916667        0.907408        0.884083        0        
C2        C        0.041667        0.962963        0.884083        0        
C2        C        0.125        0.962963        0.884083        0        
C2        C        0.208333        0.962963        0.884083        0        
C2        C        0.291667        0.962963        0.884083        0        
C2        C        0.375        0.962963        0.884083        0        
C2        C        0.458333        0.962963        0.884083        0        
C2        C        0.541667        0.962963        0.884083        0        
C2        C        0.625        0.962963        0.884083        0        
C2        C        0.708333        0.962963        0.884083        0        
C2        C        0.7916670000000001        0.962963        0.884083        0        
C2        C        0.875        0.962963        0.884083        0        
C2        C        0.958333        0.962963        0.884083        0        
C3        C        0.0        0.9814809999999999        0.884083        0        
C3        C        0.083333        0.9814809999999999        0.884083        0        
C3        C        0.166667        0.9814809999999999        0.884083        0        
C3        C        0.25        0.9814809999999999        0.884083        0        
C3        C        0.333333        0.9814809999999999        0.884083        0        
C3        C        0.416667        0.9814809999999999        0.884083        0        
C3        C        0.5        0.9814809999999999        0.884083        0        
C3        C        0.583333        0.9814809999999999        0.884083        0        
C3        C        0.666667        0.9814809999999999        0.884083        0        
C3        C        0.75        0.9814809999999999        0.884083        0        
C3        C        0.833333        0.9814809999999999        0.884083        0        
C3        C        0.916667        0.9814809999999999        0.884083        0        
C4        C        0.041667        0.925925        0.884083        0        
C4        C        0.125        0.925925        0.884083        0        
C4        C        0.208333        0.925925        0.884083        0        
C4        C        0.291667        0.925925        0.884083        0        
C4        C        0.375        0.925925        0.884083        0        
C4        C        0.458333        0.925925        0.884083        0        
C4        C        0.541667        0.925925        0.884083        0        
C4        C        0.625        0.925925        0.884083        0        
C4        C        0.708333        0.925925        0.884083        0        
C4        C        0.7916670000000001        0.925925        0.884083        0        
C4        C        0.875        0.925925        0.884083        0        
C4        C        0.958333        0.925925        0.884083        0        
C1        C        0.0        0.018519        1.0        0        
C2        C        0.041667        0.074075        1.0        0        
C3        C        0.0        0.092592        1.0        0        
C4        C        0.041667        0.037037        1.0        0        
C1        C        0.0        0.12963        1.0        0        
C2        C        0.041667        0.185185        1.0        0        
C3        C        0.0        0.203703        1.0        0        
C4        C        0.041667        0.148148        1.0        0        
C1        C        0.0        0.24074099999999998        1.0        0        
C2        C        0.041667        0.296297        1.0        0        
C3        C        0.0        0.314815        1.0        0        
C4        C        0.041667        0.259259        1.0        0        
C1        C        0.0        0.351852        1.0        0        
C2        C        0.041667        0.407408        1.0        0        
C3        C        0.0        0.42592500000000005        1.0        0        
C4        C        0.041667        0.37037        1.0        0        
C1        C        0.0        0.46296300000000007        1.0        0        
C2        C        0.041667        0.518519        1.0        0        
C3        C        0.0        0.537037        1.0        0        
C4        C        0.041667        0.481481        1.0        0        
C1        C        0.0        0.574075        1.0        0        
C2        C        0.041667        0.62963        1.0        0        
C3        C        0.0        0.648148        1.0        0        
C4        C        0.041667        0.592592        1.0        0        
C1        C        0.083333        0.018519        1.0        0        
C2        C        0.125        0.074075        1.0        0        
C3        C        0.083333        0.092592        1.0        0        
C4        C        0.125        0.037037        1.0        0        
C1        C        0.083333        0.12963        1.0        0        
C2        C        0.125        0.185185        1.0        0        
C3        C        0.083333        0.203703        1.0        0        
C4        C        0.125        0.148148        1.0        0        
C1        C        0.083333        0.24074099999999998        1.0        0        
C2        C        0.125        0.296297        1.0        0        
C3        C        0.083333        0.314815        1.0        0        
C4        C        0.125        0.259259        1.0        0        
C1        C        0.083333        0.351852        1.0        0        
C2        C        0.125        0.407408        1.0        0        
C3        C        0.083333        0.42592500000000005        1.0        0        
C4        C        0.125        0.37037        1.0        0        
C1        C        0.083333        0.46296300000000007        1.0        0        
C2        C        0.125        0.518519        1.0        0        
C3        C        0.083333        0.537037        1.0        0        
C4        C        0.125        0.481481        1.0        0        
C1        C        0.083333        0.574075        1.0        0        
C2        C        0.125        0.62963        1.0        0        
C3        C        0.083333        0.648148        1.0        0        
C4        C        0.125        0.592592        1.0        0        
C1        C        0.166667        0.018519        1.0        0        
C2        C        0.208333        0.074075        1.0        0        
C3        C        0.166667        0.092592        1.0        0        
C4        C        0.208333        0.037037        1.0        0        
C1        C        0.166667        0.12963        1.0        0        
C2        C        0.208333        0.185185        1.0        0        
C3        C        0.166667        0.203703        1.0        0        
C4        C        0.208333        0.148148        1.0        0        
C1        C        0.166667        0.24074099999999998        1.0        0        
C2        C        0.208333        0.296297        1.0        0        
C3        C        0.166667        0.314815        1.0        0        
C4        C        0.208333        0.259259        1.0        0        
C1        C        0.166667        0.351852        1.0        0        
C2        C        0.208333        0.407408        1.0        0        
C3        C        0.166667        0.42592500000000005        1.0        0        
C4        C        0.208333        0.37037        1.0        0        
C1        C        0.166667        0.46296300000000007        1.0        0        
C2        C        0.208333        0.518519        1.0        0        
C3        C        0.166667        0.537037        1.0        0        
C4        C        0.208333        0.481481        1.0        0        
C1        C        0.166667        0.574075        1.0        0        
C2        C        0.208333        0.62963        1.0        0        
C3        C        0.166667        0.648148        1.0        0        
C4        C        0.208333        0.592592        1.0        0        
C1        C        0.25        0.018519        1.0        0        
C2        C        0.291667        0.074075        1.0        0        
C3        C        0.25        0.092592        1.0        0        
C4        C        0.291667        0.037037        1.0        0        
C1        C        0.25        0.12963        1.0        0        
C2        C        0.291667        0.185185        1.0        0        
C3        C        0.25        0.203703        1.0        0        
C4        C        0.291667        0.148148        1.0        0        
C1        C        0.25        0.24074099999999998        1.0        0        
C2        C        0.291667        0.296297        1.0        0        
C3        C        0.25        0.314815        1.0        0        
C4        C        0.291667        0.259259        1.0        0        
C1        C        0.25        0.351852        1.0        0        
C2        C        0.291667        0.407408        1.0        0        
C3        C        0.25        0.42592500000000005        1.0        0        
C4        C        0.291667        0.37037        1.0        0        
C1        C        0.25        0.46296300000000007        1.0        0        
C2        C        0.291667        0.518519        1.0        0        
C3        C        0.25        0.537037        1.0        0        
C4        C        0.291667        0.481481        1.0        0        
C1        C        0.25        0.574075        1.0        0        
C2        C        0.291667        0.62963        1.0        0        
C3        C        0.25        0.648148        1.0        0        
C4        C        0.291667        0.592592        1.0        0        
C1        C        0.333333        0.018519        1.0        0        
C2        C        0.375        0.074075        1.0        0        
C3        C        0.333333        0.092592        1.0        0        
C4        C        0.375        0.037037        1.0        0        
C1        C        0.333333        0.12963        1.0        0        
C2        C        0.375        0.185185        1.0        0        
C3        C        0.333333        0.203703        1.0        0        
C4        C        0.375        0.148148        1.0        0        
C1        C        0.333333        0.24074099999999998        1.0        0        
C2        C        0.375        0.296297        1.0        0        
C3        C        0.333333        0.314815        1.0        0        
C4        C        0.375        0.259259        1.0        0        
C1        C        0.333333        0.351852        1.0        0        
C2        C        0.375        0.407408        1.0        0        
C3        C        0.333333        0.42592500000000005        1.0        0        
C4        C        0.375        0.37037        1.0        0        
C1        C        0.333333        0.46296300000000007        1.0        0        
C2        C        0.375        0.518519        1.0        0        
C3        C        0.333333        0.537037        1.0        0        
C4        C        0.375        0.481481        1.0        0        
C1        C        0.333333        0.574075        1.0        0        
C2        C        0.375        0.62963        1.0        0        
C3        C        0.333333        0.648148        1.0        0        
C4        C        0.375        0.592592        1.0        0        
C1        C        0.416667        0.018519        1.0        0        
C2        C        0.458333        0.074075        1.0        0        
C3        C        0.416667        0.092592        1.0        0        
C4        C        0.458333        0.037037        1.0        0        
C1        C        0.416667        0.12963        1.0        0        
C2        C        0.458333        0.185185        1.0        0        
C3        C        0.416667        0.203703        1.0        0        
C4        C        0.458333        0.148148        1.0        0        
C1        C        0.416667        0.24074099999999998        1.0        0        
C2        C        0.458333        0.296297        1.0        0        
C3        C        0.416667        0.314815        1.0        0        
C4        C        0.458333        0.259259        1.0        0        
C1        C        0.416667        0.351852        1.0        0        
C2        C        0.458333        0.407408        1.0        0        
C3        C        0.416667        0.42592500000000005        1.0        0        
C4        C        0.458333        0.37037        1.0        0        
C1        C        0.416667        0.46296300000000007        1.0        0        
C2        C        0.458333        0.518519        1.0        0        
C3        C        0.416667        0.537037        1.0        0        
C4        C        0.458333        0.481481        1.0        0        
C1        C        0.416667        0.574075        1.0        0        
C2        C        0.458333        0.62963        1.0        0        
C3        C        0.416667        0.648148        1.0        0        
C4        C        0.458333        0.592592        1.0        0        
C1        C        0.5        0.018519        1.0        0        
C2        C        0.541667        0.074075        1.0        0        
C3        C        0.5        0.092592        1.0        0        
C4        C        0.541667        0.037037        1.0        0        
C1        C        0.5        0.12963        1.0        0        
C2        C        0.541667        0.185185        1.0        0        
C3        C        0.5        0.203703        1.0        0        
C4        C        0.541667        0.148148        1.0        0        
C1        C        0.5        0.24074099999999998        1.0        0        
C2        C        0.541667        0.296297        1.0        0        
C3        C        0.5        0.314815        1.0        0        
C4        C        0.541667        0.259259        1.0        0        
C1        C        0.5        0.351852        1.0        0        
C2        C        0.541667        0.407408        1.0        0        
C3        C        0.5        0.42592500000000005        1.0        0        
C4        C        0.541667        0.37037        1.0        0        
C1        C        0.5        0.46296300000000007        1.0        0        
C2        C        0.541667        0.518519        1.0        0        
C3        C        0.5        0.537037        1.0        0        
C4        C        0.541667        0.481481        1.0        0        
C1        C        0.5        0.574075        1.0        0        
C2        C        0.541667        0.62963        1.0        0        
C3        C        0.5        0.648148        1.0        0        
C4        C        0.541667        0.592592        1.0        0        
C1        C        0.583333        0.018519        1.0        0        
C2        C        0.625        0.074075        1.0        0        
C3        C        0.583333        0.092592        1.0        0        
C4        C        0.625        0.037037        1.0        0        
C1        C        0.583333        0.12963        1.0        0        
C2        C        0.625        0.185185        1.0        0        
C3        C        0.583333        0.203703        1.0        0        
C4        C        0.625        0.148148        1.0        0        
C1        C        0.583333        0.24074099999999998        1.0        0        
C2        C        0.625        0.296297        1.0        0        
C3        C        0.583333        0.314815        1.0        0        
C4        C        0.625        0.259259        1.0        0        
C1        C        0.583333        0.351852        1.0        0        
C2        C        0.625        0.407408        1.0        0        
C3        C        0.583333        0.42592500000000005        1.0        0        
C4        C        0.625        0.37037        1.0        0        
C1        C        0.583333        0.46296300000000007        1.0        0        
C2        C        0.625        0.518519        1.0        0        
C3        C        0.583333        0.537037        1.0        0        
C4        C        0.625        0.481481        1.0        0        
C1        C        0.583333        0.574075        1.0        0        
C2        C        0.625        0.62963        1.0        0        
C3        C        0.583333        0.648148        1.0        0        
C4        C        0.625        0.592592        1.0        0        
C1        C        0.666667        0.018519        1.0        0        
C2        C        0.708333        0.074075        1.0        0        
C3        C        0.666667        0.092592        1.0        0        
C4        C        0.708333        0.037037        1.0        0        
C1        C        0.666667        0.12963        1.0        0        
C2        C        0.708333        0.185185        1.0        0        
C3        C        0.666667        0.203703        1.0        0        
C4        C        0.708333        0.148148        1.0        0        
C1        C        0.666667        0.24074099999999998        1.0        0        
C2        C        0.708333        0.296297        1.0        0        
C3        C        0.666667        0.314815        1.0        0        
C4        C        0.708333        0.259259        1.0        0        
C1        C        0.666667        0.351852        1.0        0        
C2        C        0.708333        0.407408        1.0        0        
C3        C        0.666667        0.42592500000000005        1.0        0        
C4        C        0.708333        0.37037        1.0        0        
C1        C        0.666667        0.46296300000000007        1.0        0        
C2        C        0.708333        0.518519        1.0        0        
C3        C        0.666667        0.537037        1.0        0        
C4        C        0.708333        0.481481        1.0        0        
C1        C        0.666667        0.574075        1.0        0        
C2        C        0.708333        0.62963        1.0        0        
C3        C        0.666667        0.648148        1.0        0        
C4        C        0.708333        0.592592        1.0        0        
C1        C        0.75        0.018519        1.0        0        
C2        C        0.7916670000000001        0.074075        1.0        0        
C3        C        0.75        0.092592        1.0        0        
C4        C        0.7916670000000001        0.037037        1.0        0        
C1        C        0.75        0.12963        1.0        0        
C2        C        0.7916670000000001        0.185185        1.0        0        
C3        C        0.75        0.203703        1.0        0        
C4        C        0.7916670000000001        0.148148        1.0        0        
C1        C        0.75        0.24074099999999998        1.0        0        
C2        C        0.7916670000000001        0.296297        1.0        0        
C3        C        0.75        0.314815        1.0        0        
C4        C        0.7916670000000001        0.259259        1.0        0        
C1        C        0.75        0.351852        1.0        0        
C2        C        0.7916670000000001        0.407408        1.0        0        
C3        C        0.75        0.42592500000000005        1.0        0        
C4        C        0.7916670000000001        0.37037        1.0        0        
C1        C        0.75        0.46296300000000007        1.0        0        
C2        C        0.7916670000000001        0.518519        1.0        0        
C3        C        0.75        0.537037        1.0        0        
C4        C        0.7916670000000001        0.481481        1.0        0        
C1        C        0.75        0.574075        1.0        0        
C2        C        0.7916670000000001        0.62963        1.0        0        
C3        C        0.75        0.648148        1.0        0        
C4        C        0.7916670000000001        0.592592        1.0        0        
C1        C        0.833333        0.018519        1.0        0        
C2        C        0.875        0.074075        1.0        0        
C3        C        0.833333        0.092592        1.0        0        
C4        C        0.875        0.037037        1.0        0        
C1        C        0.833333        0.12963        1.0        0        
C2        C        0.875        0.185185        1.0        0        
C3        C        0.833333        0.203703        1.0        0        
C4        C        0.875        0.148148        1.0        0        
C1        C        0.833333        0.24074099999999998        1.0        0        
C2        C        0.875        0.296297        1.0        0        
C3        C        0.833333        0.314815        1.0        0        
C4        C        0.875        0.259259        1.0        0        
C1        C        0.833333        0.351852        1.0        0        
C2        C        0.875        0.407408        1.0        0        
C3        C        0.833333        0.42592500000000005        1.0        0        
C4        C        0.875        0.37037        1.0        0        
C1        C        0.833333        0.46296300000000007        1.0        0        
C2        C        0.875        0.518519        1.0        0        
C3        C        0.833333        0.537037        1.0        0        
C4        C        0.875        0.481481        1.0        0        
C1        C        0.833333        0.574075        1.0        0        
C2        C        0.875        0.62963        1.0        0        
C3        C        0.833333        0.648148        1.0        0        
C4        C        0.875        0.592592        1.0        0        
C1        C        0.916667        0.018519        1.0        0        
C2        C        0.958333        0.074075        1.0        0        
C3        C        0.916667        0.092592        1.0        0        
C4        C        0.958333        0.037037        1.0        0        
C1        C        0.916667        0.12963        1.0        0        
C2        C        0.958333        0.185185        1.0        0        
C3        C        0.916667        0.203703        1.0        0        
C4        C        0.958333        0.148148        1.0        0        
C1        C        0.916667        0.24074099999999998        1.0        0        
C2        C        0.958333        0.296297        1.0        0        
C3        C        0.916667        0.314815        1.0        0        
C4        C        0.958333        0.259259        1.0        0        
C1        C        0.916667        0.351852        1.0        0        
C2        C        0.958333        0.407408        1.0        0        
C3        C        0.916667        0.42592500000000005        1.0        0        
C4        C        0.958333        0.37037        1.0        0        
C1        C        0.916667        0.46296300000000007        1.0        0        
C2        C        0.958333        0.518519        1.0        0        
C3        C        0.916667        0.537037        1.0        0        
C4        C        0.958333        0.481481        1.0        0        
C1        C        0.916667        0.574075        1.0        0        
C2        C        0.958333        0.62963        1.0        0        
C3        C        0.916667        0.648148        1.0        0        
C4        C        0.958333        0.592592        1.0        0        
C1        C        0.0        0.685186        1.0        0        
C1        C        0.083333        0.685186        1.0        0        
C1        C        0.166667        0.685186        1.0        0        
C1        C        0.25        0.685186        1.0        0        
C1        C        0.333333        0.685186        1.0        0        
C1        C        0.416667        0.685186        1.0        0        
C1        C        0.5        0.685186        1.0        0        
C1        C        0.583333        0.685186        1.0        0        
C1        C        0.666667        0.685186        1.0        0        
C1        C        0.75        0.685186        1.0        0        
C1        C        0.833333        0.685186        1.0        0        
C1        C        0.916667        0.685186        1.0        0        
C2        C        0.041667        0.740741        1.0        0        
C2        C        0.125        0.740741        1.0        0        
C2        C        0.208333        0.740741        1.0        0        
C2        C        0.291667        0.740741        1.0        0        
C2        C        0.375        0.740741        1.0        0        
C2        C        0.458333        0.740741        1.0        0        
C2        C        0.541667        0.740741        1.0        0        
C2        C        0.625        0.740741        1.0        0        
C2        C        0.708333        0.740741        1.0        0        
C2        C        0.7916670000000001        0.740741        1.0        0        
C2        C        0.875        0.740741        1.0        0        
C2        C        0.958333        0.740741        1.0        0        
C3        C        0.0        0.759259        1.0        0        
C3        C        0.083333        0.759259        1.0        0        
C3        C        0.166667        0.759259        1.0        0        
C3        C        0.25        0.759259        1.0        0        
C3        C        0.333333        0.759259        1.0        0        
C3        C        0.416667        0.759259        1.0        0        
C3        C        0.5        0.759259        1.0        0        
C3        C        0.583333        0.759259        1.0        0        
C3        C        0.666667        0.759259        1.0        0        
C3        C        0.75        0.759259        1.0        0        
C3        C        0.833333        0.759259        1.0        0        
C3        C        0.916667        0.759259        1.0        0        
C4        C        0.041667        0.703703        1.0        0        
C4        C        0.125        0.703703        1.0        0        
C4        C        0.208333        0.703703        1.0        0        
C4        C        0.291667        0.703703        1.0        0        
C4        C        0.375        0.703703        1.0        0        
C4        C        0.458333        0.703703        1.0        0        
C4        C        0.541667        0.703703        1.0        0        
C4        C        0.625        0.703703        1.0        0        
C4        C        0.708333        0.703703        1.0        0        
C4        C        0.7916670000000001        0.703703        1.0        0        
C4        C        0.875        0.703703        1.0        0        
C4        C        0.958333        0.703703        1.0        0        
C1        C        0.0        0.796297        1.0        0        
C1        C        0.083333        0.796297        1.0        0        
C1        C        0.166667        0.796297        1.0        0        
C1        C        0.25        0.796297        1.0        0        
C1        C        0.333333        0.796297        1.0        0        
C1        C        0.416667        0.796297        1.0        0        
C1        C        0.5        0.796297        1.0        0        
C1        C        0.583333        0.796297        1.0        0        
C1        C        0.666667        0.796297        1.0        0        
C1        C        0.75        0.796297        1.0        0        
C1        C        0.833333        0.796297        1.0        0        
C1        C        0.916667        0.796297        1.0        0        
C2        C        0.041667        0.851852        1.0        0        
C2        C        0.125        0.851852        1.0        0        
C2        C        0.208333        0.851852        1.0        0        
C2        C        0.291667        0.851852        1.0        0        
C2        C        0.375        0.851852        1.0        0        
C2        C        0.458333        0.851852        1.0        0        
C2        C        0.541667        0.851852        1.0        0        
C2        C        0.625        0.851852        1.0        0        
C2        C        0.708333        0.851852        1.0        0        
C2        C        0.7916670000000001        0.851852        1.0        0        
C2        C        0.875        0.851852        1.0        0        
C2        C        0.958333        0.851852        1.0        0        
C3        C        0.0        0.87037        1.0        0        
C3        C        0.083333        0.87037        1.0        0        
C3        C        0.166667        0.87037        1.0        0        
C3        C        0.25        0.87037        1.0        0        
C3        C        0.333333        0.87037        1.0        0        
C3        C        0.416667        0.87037        1.0        0        
C3        C        0.5        0.87037        1.0        0        
C3        C        0.583333        0.87037        1.0        0        
C3        C        0.666667        0.87037        1.0        0        
C3        C        0.75        0.87037        1.0        0        
C3        C        0.833333        0.87037        1.0        0        
C3        C        0.916667        0.87037        1.0        0        
C4        C        0.041667        0.814814        1.0        0        
C4        C        0.125        0.814814        1.0        0        
C4        C        0.208333        0.814814        1.0        0        
C4        C        0.291667        0.814814        1.0        0        
C4        C        0.375        0.814814        1.0        0        
C4        C        0.458333        0.814814        1.0        0        
C4        C        0.541667        0.814814        1.0        0        
C4        C        0.625        0.814814        1.0        0        
C4        C        0.708333        0.814814        1.0        0        
C4        C        0.7916670000000001        0.814814        1.0        0        
C4        C        0.875        0.814814        1.0        0        
C4        C        0.958333        0.814814        1.0        0        
C1        C        0.0        0.907408        1.0        0        
C1        C        0.083333        0.907408        1.0        0        
C1        C        0.166667        0.907408        1.0        0        
C1        C        0.25        0.907408        1.0        0        
C1        C        0.333333        0.907408        1.0        0        
C1        C        0.416667        0.907408        1.0        0        
C1        C        0.5        0.907408        1.0        0        
C1        C        0.583333        0.907408        1.0        0        
C1        C        0.666667        0.907408        1.0        0        
C1        C        0.75        0.907408        1.0        0        
C1        C        0.833333        0.907408        1.0        0        
C1        C        0.916667        0.907408        1.0        0        
C2        C        0.041667        0.962963        1.0        0        
C2        C        0.125        0.962963        1.0        0        
C2        C        0.208333        0.962963        1.0        0        
C2        C        0.291667        0.962963        1.0        0        
C2        C        0.375        0.962963        1.0        0        
C2        C        0.458333        0.962963        1.0        0        
C2        C        0.541667        0.962963        1.0        0        
C2        C        0.625        0.962963        1.0        0        
C2        C        0.708333        0.962963        1.0        0        
C2        C        0.7916670000000001        0.962963        1.0        0        
C2        C        0.875        0.962963        1.0        0        
C2        C        0.958333        0.962963        1.0        0        
C3        C        0.0        0.9814809999999999        1.0        0        
C3        C        0.083333        0.9814809999999999        1.0        0        
C3        C        0.166667        0.9814809999999999        1.0        0        
C3        C        0.25        0.9814809999999999        1.0        0        
C3        C        0.333333        0.9814809999999999        1.0        0        
C3        C        0.416667        0.9814809999999999        1.0        0        
C3        C        0.5        0.9814809999999999        1.0        0        
C3        C        0.583333        0.9814809999999999        1.0        0        
C3        C        0.666667        0.9814809999999999        1.0        0        
C3        C        0.75        0.9814809999999999        1.0        0        
C3        C        0.833333        0.9814809999999999        1.0        0        
C3        C        0.916667        0.9814809999999999        1.0        0        
C4        C        0.041667        0.925925        1.0        0        
C4        C        0.125        0.925925        1.0        0        
C4        C        0.208333        0.925925        1.0        0        
C4        C        0.291667        0.925925        1.0        0        
C4        C        0.375        0.925925        1.0        0        
C4        C        0.458333        0.925925        1.0        0        
C4        C        0.541667        0.925925        1.0        0        
C4        C        0.625        0.925925        1.0        0        
C4        C        0.708333        0.925925        1.0        0        
C4        C        0.7916670000000001        0.925925        1.0        0        
C4        C        0.875        0.925925        1.0        0        
C4        C        0.958333        0.925925        1.0        0        
O_OH        O        0.083333        0.018519        0.28141868512110724        -0.64        
O_OH        O        0.083333        0.12963        0.28141868512110724        -0.64        
O_OH        O        0.083333        0.24074099999999998        0.28141868512110724        -0.64        
O_OH        O        0.083333        0.351852        0.28141868512110724        -0.64        
O_OH        O        0.083333        0.46296300000000007        0.28141868512110724        -0.64        
O_OH        O        0.083333        0.574075        0.28141868512110724        -0.64        
O_OH        O        0.25        0.018519        0.28141868512110724        -0.64        
O_OH        O        0.25        0.12963        0.28141868512110724        -0.64        
O_OH        O        0.25        0.24074099999999998        0.28141868512110724        -0.64        
O_OH        O        0.25        0.351852        0.28141868512110724        -0.64        
O_OH        O        0.25        0.46296300000000007        0.28141868512110724        -0.64        
O_OH        O        0.25        0.574075        0.28141868512110724        -0.64        
O_OH        O        0.75        0.018519        0.28141868512110724        -0.64        
O_OH        O        0.75        0.12963        0.28141868512110724        -0.64        
O_OH        O        0.75        0.24074099999999998        0.28141868512110724        -0.64        
O_OH        O        0.75        0.351852        0.28141868512110724        -0.64        
O_OH        O        0.75        0.46296300000000007        0.28141868512110724        -0.64        
O_OH        O        0.75        0.574075        0.28141868512110724        -0.64        
O_OH        O        0.916667        0.018519        0.28141868512110724        -0.64        
O_OH        O        0.916667        0.12963        0.28141868512110724        -0.64        
O_OH        O        0.916667        0.24074099999999998        0.28141868512110724        -0.64        
O_OH        O        0.916667        0.351852        0.28141868512110724        -0.64        
O_OH        O        0.916667        0.46296300000000007        0.28141868512110724        -0.64        
O_OH        O        0.916667        0.574075        0.28141868512110724        -0.64        
O_OH        O        0.083333        0.685186        0.28141868512110724        -0.64        
O_OH        O        0.25        0.685186        0.28141868512110724        -0.64        
O_OH        O        0.75        0.685186        0.28141868512110724        -0.64        
O_OH        O        0.916667        0.685186        0.28141868512110724        -0.64        
O_OH        O        0.083333        0.796297        0.28141868512110724        -0.64        
O_OH        O        0.25        0.796297        0.28141868512110724        -0.64        
O_OH        O        0.75        0.796297        0.28141868512110724        -0.64        
O_OH        O        0.916667        0.796297        0.28141868512110724        -0.64        
O_OH        O        0.083333        0.907408        0.28141868512110724        -0.64        
O_OH        O        0.25        0.907408        0.28141868512110724        -0.64        
O_OH        O        0.75        0.907408        0.28141868512110724        -0.64        
O_OH        O        0.916667        0.907408        0.28141868512110724        -0.64        
O_OH        O        0.083333        0.018519        0.7185813148788928        -0.64        
O_OH        O        0.083333        0.12963        0.7185813148788928        -0.64        
O_OH        O        0.083333        0.24074099999999998        0.7185813148788928        -0.64        
O_OH        O        0.083333        0.351852        0.7185813148788928        -0.64        
O_OH        O        0.083333        0.46296300000000007        0.7185813148788928        -0.64        
O_OH        O        0.083333        0.574075        0.7185813148788928        -0.64        
O_OH        O        0.25        0.018519        0.7185813148788928        -0.64        
O_OH        O        0.25        0.12963        0.7185813148788928        -0.64        
O_OH        O        0.25        0.24074099999999998        0.7185813148788928        -0.64        
O_OH        O        0.25        0.351852        0.7185813148788928        -0.64        
O_OH        O        0.25        0.46296300000000007        0.7185813148788928        -0.64        
O_OH        O        0.25        0.574075        0.7185813148788928        -0.64        
O_OH        O        0.75        0.018519        0.7185813148788928        -0.64        
O_OH        O        0.75        0.12963        0.7185813148788928        -0.64        
O_OH        O        0.75        0.24074099999999998        0.7185813148788928        -0.64        
O_OH        O        0.75        0.351852        0.7185813148788928        -0.64        
O_OH        O        0.75        0.46296300000000007        0.7185813148788928        -0.64        
O_OH        O        0.75        0.574075        0.7185813148788928        -0.64        
O_OH        O        0.916667        0.018519        0.7185813148788928        -0.64        
O_OH        O        0.916667        0.12963        0.7185813148788928        -0.64        
O_OH        O        0.916667        0.24074099999999998        0.7185813148788928        -0.64        
O_OH        O        0.916667        0.351852        0.7185813148788928        -0.64        
O_OH        O        0.916667        0.46296300000000007        0.7185813148788928        -0.64        
O_OH        O        0.916667        0.574075        0.7185813148788928        -0.64        
O_OH        O        0.083333        0.685186        0.7185813148788928        -0.64        
O_OH        O        0.25        0.685186        0.7185813148788928        -0.64        
O_OH        O        0.75        0.685186        0.7185813148788928        -0.64        
O_OH        O        0.916667        0.685186        0.7185813148788928        -0.64        
O_OH        O        0.083333        0.796297        0.7185813148788928        -0.64        
O_OH        O        0.25        0.796297        0.7185813148788928        -0.64        
O_OH        O        0.75        0.796297        0.7185813148788928        -0.64        
O_OH        O        0.916667        0.796297        0.7185813148788928        -0.64        
O_OH        O        0.083333        0.907408        0.7185813148788928        -0.64        
O_OH        O        0.25        0.907408        0.7185813148788928        -0.64        
O_OH        O        0.75        0.907408        0.7185813148788928        -0.64        
O_OH        O        0.916667        0.907408        0.7185813148788928        -0.64        
H_OH        H        0.10728221822350993        0.033011725744905775        0.29305186851211074        0.44        
H_OH        H        0.054898520135244065        0.13804139161673717        0.29305186851211074        0.44        
H_OH        H        0.11346906148844699        0.24415696024567451        0.29305186851211074        0.44        
H_OH        H        0.05334888953439352        0.3559853347459002        0.29305186851211074        0.44        
H_OH        H        0.054917141325605115        0.4714116146065698        0.29305186851211074        0.44        
H_OH        H        0.06849657813608163        0.5945584437007979        0.29305186851211074        0.44        
H_OH        H        0.2222448796720071        0.028182409629527474        0.29305186851211074        0.44        
H_OH        H        0.2648662538833336        0.15010061715414366        0.29305186851211074        0.44        
H_OH        H        0.23251429866336057        0.25994535965240567        0.29305186851211074        0.44        
H_OH        H        0.2545683057258579        0.37504019491359575        0.29305186851211074        0.44        
H_OH        H        0.24557790915140065        0.48616799241522357        0.29305186851211074        0.44        
H_OH        H        0.24425770304792485        0.5971079430728277        0.29305186851211074        0.44        
H_OH        H        0.7773191304718557        0.028892830275317694        0.29305186851211074        0.44        
H_OH        H        0.7640419254666705        0.1504428122132461        0.29305186851211074        0.44        
H_OH        H        0.7213465150891942        0.24869962108357607        0.29305186851211074        0.44        
H_OH        H        0.7726233727932749        0.3675569373834925        0.29305186851211074        0.44        
H_OH        H        0.7203866219184332        0.4684568891155485        0.29305186851211074        0.44        
H_OH        H        0.7761645753054025        0.5860843046949566        0.29305186851211074        0.44        
H_OH        H        0.905839561018547        0.04044079564297904        0.29305186851211074        0.44        
H_OH        H        0.90946918728093        0.15241927013524942        0.29305186851211074        0.44        
H_OH        H        0.932115040850901        0.2609546286616255        0.29305186851211074        0.44        
H_OH        H        0.9458502811107753        0.35857319049287        0.29305186851211074        0.44        
H_OH        H        0.8997109835877339        0.4824469046077312        0.29305186851211074        0.44        
H_OH        H        0.9218090599158958        0.5971918666787617        0.29305186851211074        0.44        
H_OH        H        0.09724408547215055        0.7060508350949934        0.29305186851211074        0.44        
H_OH        H        0.26175347388996884        0.706823205779311        0.29305186851211074        0.44        
H_OH        H        0.7303743225808363        0.7031227376530512        0.29305186851211074        0.44        
H_OH        H        0.9469791605659899        0.6875007801064005        0.29305186851211074        0.44        
H_OH        H        0.1093871016519019        0.8084478557971292        0.29305186851211074        0.44        
H_OH        H        0.2196746854838463        0.7985072837670832        0.29305186851211074        0.44        
H_OH        H        0.7464935316018715        0.8195945394692142        0.29305186851211074        0.44        
H_OH        H        0.8997456294704732        0.8157987524273103        0.29305186851211074        0.44        
H_OH        H        0.09162463265605793        0.9299758256072588        0.29305186851211074        0.44        
H_OH        H        0.24623900662907822        0.9306819932537701        0.29305186851211074        0.44        
H_OH        H        0.7776193089835959        0.9172994019222412        0.29305186851211074        0.44        
H_OH        H        0.8943947312050422        0.923407682014384        0.29305186851211074        0.44        
H_OH        H        0.056860127839724516        0.030120853960499825        0.7069481314878893        0.44        
H_OH        H        0.066365081693244        0.14910776114415553        0.7069481314878893        0.44        
H_OH        H        0.06330934258682942        0.2584150473211496        0.7069481314878893        0.44        
H_OH        H        0.0593678180219069        0.36632907323071573        0.7069481314878893        0.44        
H_OH        H        0.11122686443773366        0.47238660236056        0.7069481314878893        0.44        
H_OH        H        0.11358614763565186        0.5768094202232987        0.7069481314878893        0.44        
H_OH        H        0.27316266174157905        0.03375077647096559        0.7069481314878893        0.44        
H_OH        H        0.22631657888496226        0.14437939539347233        0.7069481314878893        0.44        
H_OH        H        0.21979115223438886        0.24375180028850482        0.7069481314878893        0.44        
H_OH        H        0.22713557403566872        0.3673486033514489        0.7069481314878893        0.44        
H_OH        H        0.23004950127185128        0.4806860259169655        0.7069481314878893        0.44        
H_OH        H        0.2533790867107719        0.5973836960321547        0.7069481314878893        0.44        
H_OH        H        0.7782047539018486        0.02737705215961265        0.7069481314878893        0.44        
H_OH        H        0.7751364536879064        0.1428773138362143        0.7069481314878893        0.44        
H_OH        H        0.7760463491902864        0.25290170490186176        0.7069481314878893        0.44        
H_OH        H        0.7395649676158325        0.3738863232780337        0.7069481314878893        0.44        
H_OH        H        0.7199302547018882        0.4667094276298445        0.7069481314878893        0.44        
H_OH        H        0.7198198137336235        0.5772516347643901        0.7069481314878893        0.44        
H_OH        H        0.8937571598129875        0.03397578956302422        0.7069481314878893        0.44        
H_OH        H        0.8966340424628532        0.14729779844027258        0.7069481314878893        0.44        
H_OH        H        0.9466688265123454        0.24479740851284976        0.7069481314878893        0.44        
H_OH        H        0.9180028473553259        0.37528288683717087        0.7069481314878893        0.44        
H_OH        H        0.9422103356013711        0.47574059006337605        0.7069481314878893        0.44        
H_OH        H        0.886432537704455        0.5769293101684979        0.7069481314878893        0.44        
H_OH        H        0.06883282396453504        0.7058116951707972        0.7069481314878893        0.44        
H_OH        H        0.2517679806909967        0.7085999129025276        0.7069481314878893        0.44        
H_OH        H        0.7253230169546617        0.6989359037354086        0.7069481314878893        0.44        
H_OH        H        0.89206353136807        0.6990137822828119        0.7069481314878893        0.44        
H_OH        H        0.10768156033145426        0.8103897297579387        0.7069481314878893        0.44        
H_OH        H        0.23969492744753773        0.8183675527474041        0.7069481314878893        0.44        
H_OH        H        0.7803912893893437        0.797881494482189        0.7069481314878893        0.44        
H_OH        H        0.888721060035939        0.8056286882374926        0.7069481314878893        0.44        
H_OH        H        0.06559077561658296        0.9264723693627934        0.7069481314878893        0.44        
H_OH        H        0.2804505145465698        0.908019921508942        0.7069481314878893        0.44        
H_OH        H        0.7670264433398162        0.9268554609125267        0.7069481314878893        0.44        
H_OH        H        0.9049244986884019        0.9290487373186165        0.7069481314878893        0.44        
