data_graphite_ortho

_audit_creation_method RASPA-1.0
_audit_creation_date 2012-2-3
_audit_author_name 'David Dubbeldam'

_cell_length_a    29.52    
_cell_length_b    38.34    
_cell_length_c    22.2    
_cell_angle_alpha 90
_cell_angle_beta  90
_cell_angle_gamma 90
_cell_volume      25125.89      

_symmetry_cell_setting          triclinic
_symmetry_space_group_name_Hall 'P 1'
_symmetry_space_group_name_H-M  'P 1'
_symmetry_Int_Tables_number     1

_symmetry_equiv_pos_as_xyz 'x,y,z'

loop_
_atom_site_label
_atom_site_type_symbol
_atom_site_fract_x
_atom_site_fract_y
_atom_site_fract_z
_atom_site_charge
C1        C        0.0        0.018519        0.0        0        
C2        C        0.041667        0.074075        0.0        0        
C3        C        0.0        0.092592        0.0        0        
C4        C        0.041667        0.037037        0.0        0        
C1        C        0.0        0.12963        0.0        0        
C2        C        0.041667        0.185185        0.0        0        
C3        C        0.0        0.203703        0.0        0        
C4        C        0.041667        0.148148        0.0        0        
C1        C        0.0        0.240741        0.0        0        
C2        C        0.041667        0.296297        0.0        0        
C3        C        0.0        0.314815        0.0        0        
C4        C        0.041667        0.259259        0.0        0        
C1        C        0.0        0.351852        0.0        0        
C2        C        0.041667        0.407408        0.0        0        
C3        C        0.0        0.425925        0.0        0        
C4        C        0.041667        0.37037        0.0        0        
C1        C        0.0        0.462963        0.0        0        
C2        C        0.041667        0.518519        0.0        0        
C3        C        0.0        0.537037        0.0        0        
C4        C        0.041667        0.481481        0.0        0        
C1        C        0.0        0.574075        0.0        0        
C2        C        0.041667        0.62963        0.0        0        
C3        C        0.0        0.648148        0.0        0        
C4        C        0.041667        0.592592        0.0        0        
C1        C        0.083333        0.018519        0.0        0        
C2        C        0.125        0.074075        0.0        0        
C3        C        0.083333        0.092592        0.0        0        
C4        C        0.125        0.037037        0.0        0        
C1        C        0.083333        0.12963        0.0        0        
C2        C        0.125        0.185185        0.0        0        
C3        C        0.083333        0.203703        0.0        0        
C4        C        0.125        0.148148        0.0        0        
C1        C        0.083333        0.240741        0.0        0        
C2        C        0.125        0.296297        0.0        0        
C3        C        0.083333        0.314815        0.0        0        
C4        C        0.125        0.259259        0.0        0        
C1        C        0.083333        0.351852        0.0        0        
C2        C        0.125        0.407408        0.0        0        
C3        C        0.083333        0.425925        0.0        0        
C4        C        0.125        0.37037        0.0        0        
C1        C        0.083333        0.462963        0.0        0        
C2        C        0.125        0.518519        0.0        0        
C3        C        0.083333        0.537037        0.0        0        
C4        C        0.125        0.481481        0.0        0        
C1        C        0.083333        0.574075        0.0        0        
C2        C        0.125        0.62963        0.0        0        
C3        C        0.083333        0.648148        0.0        0        
C4        C        0.125        0.592592        0.0        0        
C1        C        0.166667        0.018519        0.0        0        
C2        C        0.208333        0.074075        0.0        0        
C3        C        0.166667        0.092592        0.0        0        
C4        C        0.208333        0.037037        0.0        0        
C1        C        0.166667        0.12963        0.0        0        
C2        C        0.208333        0.185185        0.0        0        
C3        C        0.166667        0.203703        0.0        0        
C4        C        0.208333        0.148148        0.0        0        
C1        C        0.166667        0.240741        0.0        0        
C2        C        0.208333        0.296297        0.0        0        
C3        C        0.166667        0.314815        0.0        0        
C4        C        0.208333        0.259259        0.0        0        
C1        C        0.166667        0.351852        0.0        0        
C2        C        0.208333        0.407408        0.0        0        
C3        C        0.166667        0.425925        0.0        0        
C4        C        0.208333        0.37037        0.0        0        
C1        C        0.166667        0.462963        0.0        0        
C2        C        0.208333        0.518519        0.0        0        
C3        C        0.166667        0.537037        0.0        0        
C4        C        0.208333        0.481481        0.0        0        
C1        C        0.166667        0.574075        0.0        0        
C2        C        0.208333        0.62963        0.0        0        
C3        C        0.166667        0.648148        0.0        0        
C4        C        0.208333        0.592592        0.0        0        
C1        C        0.25        0.018519        0.0        0        
C2        C        0.291667        0.074075        0.0        0        
C3        C        0.25        0.092592        0.0        0        
C4        C        0.291667        0.037037        0.0        0        
C1        C        0.25        0.12963        0.0        0        
C2        C        0.291667        0.185185        0.0        0        
C3        C        0.25        0.203703        0.0        0        
C4        C        0.291667        0.148148        0.0        0        
C1        C        0.25        0.240741        0.0        0        
C2        C        0.291667        0.296297        0.0        0        
C3        C        0.25        0.314815        0.0        0        
C4        C        0.291667        0.259259        0.0        0        
C1        C        0.25        0.351852        0.0        0        
C2        C        0.291667        0.407408        0.0        0        
C3        C        0.25        0.425925        0.0        0        
C4        C        0.291667        0.37037        0.0        0        
C1        C        0.25        0.462963        0.0        0        
C2        C        0.291667        0.518519        0.0        0        
C3        C        0.25        0.537037        0.0        0        
C4        C        0.291667        0.481481        0.0        0        
C1        C        0.25        0.574075        0.0        0        
C2        C        0.291667        0.62963        0.0        0        
C3        C        0.25        0.648148        0.0        0        
C4        C        0.291667        0.592592        0.0        0        
C1        C        0.333333        0.018519        0.0        0        
C2        C        0.375        0.074075        0.0        0        
C3        C        0.333333        0.092592        0.0        0        
C4        C        0.375        0.037037        0.0        0        
C1        C        0.333333        0.12963        0.0        0        
C2        C        0.375        0.185185        0.0        0        
C3        C        0.333333        0.203703        0.0        0        
C4        C        0.375        0.148148        0.0        0        
C1        C        0.333333        0.240741        0.0        0        
C2        C        0.375        0.296297        0.0        0        
C3        C        0.333333        0.314815        0.0        0        
C4        C        0.375        0.259259        0.0        0        
C1        C        0.333333        0.351852        0.0        0        
C2        C        0.375        0.407408        0.0        0        
C3        C        0.333333        0.425925        0.0        0        
C4        C        0.375        0.37037        0.0        0        
C1        C        0.333333        0.462963        0.0        0        
C2        C        0.375        0.518519        0.0        0        
C3        C        0.333333        0.537037        0.0        0        
C4        C        0.375        0.481481        0.0        0        
C1        C        0.333333        0.574075        0.0        0        
C2        C        0.375        0.62963        0.0        0        
C3        C        0.333333        0.648148        0.0        0        
C4        C        0.375        0.592592        0.0        0        
C1        C        0.416667        0.018519        0.0        0        
C2        C        0.458333        0.074075        0.0        0        
C3        C        0.416667        0.092592        0.0        0        
C4        C        0.458333        0.037037        0.0        0        
C1        C        0.416667        0.12963        0.0        0        
C2        C        0.458333        0.185185        0.0        0        
C3        C        0.416667        0.203703        0.0        0        
C4        C        0.458333        0.148148        0.0        0        
C1        C        0.416667        0.240741        0.0        0        
C2        C        0.458333        0.296297        0.0        0        
C3        C        0.416667        0.314815        0.0        0        
C4        C        0.458333        0.259259        0.0        0        
C1        C        0.416667        0.351852        0.0        0        
C2        C        0.458333        0.407408        0.0        0        
C3        C        0.416667        0.425925        0.0        0        
C4        C        0.458333        0.37037        0.0        0        
C1        C        0.416667        0.462963        0.0        0        
C2        C        0.458333        0.518519        0.0        0        
C3        C        0.416667        0.537037        0.0        0        
C4        C        0.458333        0.481481        0.0        0        
C1        C        0.416667        0.574075        0.0        0        
C2        C        0.458333        0.62963        0.0        0        
C3        C        0.416667        0.648148        0.0        0        
C4        C        0.458333        0.592592        0.0        0        
C1        C        0.5        0.018519        0.0        0        
C2        C        0.541667        0.074075        0.0        0        
C3        C        0.5        0.092592        0.0        0        
C4        C        0.541667        0.037037        0.0        0        
C1        C        0.5        0.12963        0.0        0        
C2        C        0.541667        0.185185        0.0        0        
C3        C        0.5        0.203703        0.0        0        
C4        C        0.541667        0.148148        0.0        0        
C1        C        0.5        0.240741        0.0        0        
C2        C        0.541667        0.296297        0.0        0        
C3        C        0.5        0.314815        0.0        0        
C4        C        0.541667        0.259259        0.0        0        
C1        C        0.5        0.351852        0.0        0        
C2        C        0.541667        0.407408        0.0        0        
C3        C        0.5        0.425925        0.0        0        
C4        C        0.541667        0.37037        0.0        0        
C1        C        0.5        0.462963        0.0        0        
C2        C        0.541667        0.518519        0.0        0        
C3        C        0.5        0.537037        0.0        0        
C4        C        0.541667        0.481481        0.0        0        
C1        C        0.5        0.574075        0.0        0        
C2        C        0.541667        0.62963        0.0        0        
C3        C        0.5        0.648148        0.0        0        
C4        C        0.541667        0.592592        0.0        0        
C1        C        0.583333        0.018519        0.0        0        
C2        C        0.625        0.074075        0.0        0        
C3        C        0.583333        0.092592        0.0        0        
C4        C        0.625        0.037037        0.0        0        
C1        C        0.583333        0.12963        0.0        0        
C2        C        0.625        0.185185        0.0        0        
C3        C        0.583333        0.203703        0.0        0        
C4        C        0.625        0.148148        0.0        0        
C1        C        0.583333        0.240741        0.0        0        
C2        C        0.625        0.296297        0.0        0        
C3        C        0.583333        0.314815        0.0        0        
C4        C        0.625        0.259259        0.0        0        
C1        C        0.583333        0.351852        0.0        0        
C2        C        0.625        0.407408        0.0        0        
C3        C        0.583333        0.425925        0.0        0        
C4        C        0.625        0.37037        0.0        0        
C1        C        0.583333        0.462963        0.0        0        
C2        C        0.625        0.518519        0.0        0        
C3        C        0.583333        0.537037        0.0        0        
C4        C        0.625        0.481481        0.0        0        
C1        C        0.583333        0.574075        0.0        0        
C2        C        0.625        0.62963        0.0        0        
C3        C        0.583333        0.648148        0.0        0        
C4        C        0.625        0.592592        0.0        0        
C1        C        0.666667        0.018519        0.0        0        
C2        C        0.708333        0.074075        0.0        0        
C3        C        0.666667        0.092592        0.0        0        
C4        C        0.708333        0.037037        0.0        0        
C1        C        0.666667        0.12963        0.0        0        
C2        C        0.708333        0.185185        0.0        0        
C3        C        0.666667        0.203703        0.0        0        
C4        C        0.708333        0.148148        0.0        0        
C1        C        0.666667        0.240741        0.0        0        
C2        C        0.708333        0.296297        0.0        0        
C3        C        0.666667        0.314815        0.0        0        
C4        C        0.708333        0.259259        0.0        0        
C1        C        0.666667        0.351852        0.0        0        
C2        C        0.708333        0.407408        0.0        0        
C3        C        0.666667        0.425925        0.0        0        
C4        C        0.708333        0.37037        0.0        0        
C1        C        0.666667        0.462963        0.0        0        
C2        C        0.708333        0.518519        0.0        0        
C3        C        0.666667        0.537037        0.0        0        
C4        C        0.708333        0.481481        0.0        0        
C1        C        0.666667        0.574075        0.0        0        
C2        C        0.708333        0.62963        0.0        0        
C3        C        0.666667        0.648148        0.0        0        
C4        C        0.708333        0.592592        0.0        0        
C1        C        0.75        0.018519        0.0        0        
C2        C        0.791667        0.074075        0.0        0        
C3        C        0.75        0.092592        0.0        0        
C4        C        0.791667        0.037037        0.0        0        
C1        C        0.75        0.12963        0.0        0        
C2        C        0.791667        0.185185        0.0        0        
C3        C        0.75        0.203703        0.0        0        
C4        C        0.791667        0.148148        0.0        0        
C1        C        0.75        0.240741        0.0        0        
C2        C        0.791667        0.296297        0.0        0        
C3        C        0.75        0.314815        0.0        0        
C4        C        0.791667        0.259259        0.0        0        
C1        C        0.75        0.351852        0.0        0        
C2        C        0.791667        0.407408        0.0        0        
C3        C        0.75        0.425925        0.0        0        
C4        C        0.791667        0.37037        0.0        0        
C1        C        0.75        0.462963        0.0        0        
C2        C        0.791667        0.518519        0.0        0        
C3        C        0.75        0.537037        0.0        0        
C4        C        0.791667        0.481481        0.0        0        
C1        C        0.75        0.574075        0.0        0        
C2        C        0.791667        0.62963        0.0        0        
C3        C        0.75        0.648148        0.0        0        
C4        C        0.791667        0.592592        0.0        0        
C1        C        0.833333        0.018519        0.0        0        
C2        C        0.875        0.074075        0.0        0        
C3        C        0.833333        0.092592        0.0        0        
C4        C        0.875        0.037037        0.0        0        
C1        C        0.833333        0.12963        0.0        0        
C2        C        0.875        0.185185        0.0        0        
C3        C        0.833333        0.203703        0.0        0        
C4        C        0.875        0.148148        0.0        0        
C1        C        0.833333        0.240741        0.0        0        
C2        C        0.875        0.296297        0.0        0        
C3        C        0.833333        0.314815        0.0        0        
C4        C        0.875        0.259259        0.0        0        
C1        C        0.833333        0.351852        0.0        0        
C2        C        0.875        0.407408        0.0        0        
C3        C        0.833333        0.425925        0.0        0        
C4        C        0.875        0.37037        0.0        0        
C1        C        0.833333        0.462963        0.0        0        
C2        C        0.875        0.518519        0.0        0        
C3        C        0.833333        0.537037        0.0        0        
C4        C        0.875        0.481481        0.0        0        
C1        C        0.833333        0.574075        0.0        0        
C2        C        0.875        0.62963        0.0        0        
C3        C        0.833333        0.648148        0.0        0        
C4        C        0.875        0.592592        0.0        0        
C1        C        0.916667        0.018519        0.0        0        
C2        C        0.958333        0.074075        0.0        0        
C3        C        0.916667        0.092592        0.0        0        
C4        C        0.958333        0.037037        0.0        0        
C1        C        0.916667        0.12963        0.0        0        
C2        C        0.958333        0.185185        0.0        0        
C3        C        0.916667        0.203703        0.0        0        
C4        C        0.958333        0.148148        0.0        0        
C1        C        0.916667        0.240741        0.0        0        
C2        C        0.958333        0.296297        0.0        0        
C3        C        0.916667        0.314815        0.0        0        
C4        C        0.958333        0.259259        0.0        0        
C1        C        0.916667        0.351852        0.0        0        
C2        C        0.958333        0.407408        0.0        0        
C3        C        0.916667        0.425925        0.0        0        
C4        C        0.958333        0.37037        0.0        0        
C1        C        0.916667        0.462963        0.0        0        
C2        C        0.958333        0.518519        0.0        0        
C3        C        0.916667        0.537037        0.0        0        
C4        C        0.958333        0.481481        0.0        0        
C1        C        0.916667        0.574075        0.0        0        
C2        C        0.958333        0.62963        0.0        0        
C3        C        0.916667        0.648148        0.0        0        
C4        C        0.958333        0.592592        0.0        0        
C1        C        0.0        0.685186        0.0        0        
C1        C        0.083333        0.685186        0.0        0        
C1        C        0.166667        0.685186        0.0        0        
C1        C        0.25        0.685186        0.0        0        
C1        C        0.333333        0.685186        0.0        0        
C1        C        0.416667        0.685186        0.0        0        
C1        C        0.5        0.685186        0.0        0        
C1        C        0.583333        0.685186        0.0        0        
C1        C        0.666667        0.685186        0.0        0        
C1        C        0.75        0.685186        0.0        0        
C1        C        0.833333        0.685186        0.0        0        
C1        C        0.916667        0.685186        0.0        0        
C2        C        0.041667        0.740741        0.0        0        
C2        C        0.125        0.740741        0.0        0        
C2        C        0.208333        0.740741        0.0        0        
C2        C        0.291667        0.740741        0.0        0        
C2        C        0.375        0.740741        0.0        0        
C2        C        0.458333        0.740741        0.0        0        
C2        C        0.541667        0.740741        0.0        0        
C2        C        0.625        0.740741        0.0        0        
C2        C        0.708333        0.740741        0.0        0        
C2        C        0.791667        0.740741        0.0        0        
C2        C        0.875        0.740741        0.0        0        
C2        C        0.958333        0.740741        0.0        0        
C3        C        0.0        0.759259        0.0        0        
C3        C        0.083333        0.759259        0.0        0        
C3        C        0.166667        0.759259        0.0        0        
C3        C        0.25        0.759259        0.0        0        
C3        C        0.333333        0.759259        0.0        0        
C3        C        0.416667        0.759259        0.0        0        
C3        C        0.5        0.759259        0.0        0        
C3        C        0.583333        0.759259        0.0        0        
C3        C        0.666667        0.759259        0.0        0        
C3        C        0.75        0.759259        0.0        0        
C3        C        0.833333        0.759259        0.0        0        
C3        C        0.916667        0.759259        0.0        0        
C4        C        0.041667        0.703703        0.0        0        
C4        C        0.125        0.703703        0.0        0        
C4        C        0.208333        0.703703        0.0        0        
C4        C        0.291667        0.703703        0.0        0        
C4        C        0.375        0.703703        0.0        0        
C4        C        0.458333        0.703703        0.0        0        
C4        C        0.541667        0.703703        0.0        0        
C4        C        0.625        0.703703        0.0        0        
C4        C        0.708333        0.703703        0.0        0        
C4        C        0.791667        0.703703        0.0        0        
C4        C        0.875        0.703703        0.0        0        
C4        C        0.958333        0.703703        0.0        0        
C1        C        0.0        0.796297        0.0        0        
C1        C        0.083333        0.796297        0.0        0        
C1        C        0.166667        0.796297        0.0        0        
C1        C        0.25        0.796297        0.0        0        
C1        C        0.333333        0.796297        0.0        0        
C1        C        0.416667        0.796297        0.0        0        
C1        C        0.5        0.796297        0.0        0        
C1        C        0.583333        0.796297        0.0        0        
C1        C        0.666667        0.796297        0.0        0        
C1        C        0.75        0.796297        0.0        0        
C1        C        0.833333        0.796297        0.0        0        
C1        C        0.916667        0.796297        0.0        0        
C2        C        0.041667        0.851852        0.0        0        
C2        C        0.125        0.851852        0.0        0        
C2        C        0.208333        0.851852        0.0        0        
C2        C        0.291667        0.851852        0.0        0        
C2        C        0.375        0.851852        0.0        0        
C2        C        0.458333        0.851852        0.0        0        
C2        C        0.541667        0.851852        0.0        0        
C2        C        0.625        0.851852        0.0        0        
C2        C        0.708333        0.851852        0.0        0        
C2        C        0.791667        0.851852        0.0        0        
C2        C        0.875        0.851852        0.0        0        
C2        C        0.958333        0.851852        0.0        0        
C3        C        0.0        0.87037        0.0        0        
C3        C        0.083333        0.87037        0.0        0        
C3        C        0.166667        0.87037        0.0        0        
C3        C        0.25        0.87037        0.0        0        
C3        C        0.333333        0.87037        0.0        0        
C3        C        0.416667        0.87037        0.0        0        
C3        C        0.5        0.87037        0.0        0        
C3        C        0.583333        0.87037        0.0        0        
C3        C        0.666667        0.87037        0.0        0        
C3        C        0.75        0.87037        0.0        0        
C3        C        0.833333        0.87037        0.0        0        
C3        C        0.916667        0.87037        0.0        0        
C4        C        0.041667        0.814814        0.0        0        
C4        C        0.125        0.814814        0.0        0        
C4        C        0.208333        0.814814        0.0        0        
C4        C        0.291667        0.814814        0.0        0        
C4        C        0.375        0.814814        0.0        0        
C4        C        0.458333        0.814814        0.0        0        
C4        C        0.541667        0.814814        0.0        0        
C4        C        0.625        0.814814        0.0        0        
C4        C        0.708333        0.814814        0.0        0        
C4        C        0.791667        0.814814        0.0        0        
C4        C        0.875        0.814814        0.0        0        
C4        C        0.958333        0.814814        0.0        0        
C1        C        0.0        0.907408        0.0        0        
C1        C        0.083333        0.907408        0.0        0        
C1        C        0.166667        0.907408        0.0        0        
C1        C        0.25        0.907408        0.0        0        
C1        C        0.333333        0.907408        0.0        0        
C1        C        0.416667        0.907408        0.0        0        
C1        C        0.5        0.907408        0.0        0        
C1        C        0.583333        0.907408        0.0        0        
C1        C        0.666667        0.907408        0.0        0        
C1        C        0.75        0.907408        0.0        0        
C1        C        0.833333        0.907408        0.0        0        
C1        C        0.916667        0.907408        0.0        0        
C2        C        0.041667        0.962963        0.0        0        
C2        C        0.125        0.962963        0.0        0        
C2        C        0.208333        0.962963        0.0        0        
C2        C        0.291667        0.962963        0.0        0        
C2        C        0.375        0.962963        0.0        0        
C2        C        0.458333        0.962963        0.0        0        
C2        C        0.541667        0.962963        0.0        0        
C2        C        0.625        0.962963        0.0        0        
C2        C        0.708333        0.962963        0.0        0        
C2        C        0.791667        0.962963        0.0        0        
C2        C        0.875        0.962963        0.0        0        
C2        C        0.958333        0.962963        0.0        0        
C3        C        0.0        0.981481        0.0        0        
C3        C        0.083333        0.981481        0.0        0        
C3        C        0.166667        0.981481        0.0        0        
C3        C        0.25        0.981481        0.0        0        
C3        C        0.333333        0.981481        0.0        0        
C3        C        0.416667        0.981481        0.0        0        
C3        C        0.5        0.981481        0.0        0        
C3        C        0.583333        0.981481        0.0        0        
C3        C        0.666667        0.981481        0.0        0        
C3        C        0.75        0.981481        0.0        0        
C3        C        0.833333        0.981481        0.0        0        
C3        C        0.916667        0.981481        0.0        0        
C4        C        0.041667        0.925925        0.0        0        
C4        C        0.125        0.925925        0.0        0        
C4        C        0.208333        0.925925        0.0        0        
C4        C        0.291667        0.925925        0.0        0        
C4        C        0.375        0.925925        0.0        0        
C4        C        0.458333        0.925925        0.0        0        
C4        C        0.541667        0.925925        0.0        0        
C4        C        0.625        0.925925        0.0        0        
C4        C        0.708333        0.925925        0.0        0        
C4        C        0.791667        0.925925        0.0        0        
C4        C        0.875        0.925925        0.0        0        
C4        C        0.958333        0.925925        0.0        0        
C1        C        0.0        0.018519        0.150901        0        
C2        C        0.041667        0.074075        0.150901        0        
C3        C        0.0        0.092592        0.150901        0        
C4        C        0.041667        0.037037        0.150901        0        
C1        C        0.0        0.12963        0.150901        0        
C2        C        0.041667        0.185185        0.150901        0        
C3        C        0.0        0.203703        0.150901        0        
C4        C        0.041667        0.148148        0.150901        0        
C1        C        0.0        0.240741        0.150901        0        
C2        C        0.041667        0.296297        0.150901        0        
C3        C        0.0        0.314815        0.150901        0        
C4        C        0.041667        0.259259        0.150901        0        
C1        C        0.0        0.351852        0.150901        0        
C2        C        0.041667        0.407408        0.150901        0        
C3        C        0.0        0.425925        0.150901        0        
C4        C        0.041667        0.37037        0.150901        0        
C1        C        0.0        0.462963        0.150901        0        
C2        C        0.041667        0.518519        0.150901        0        
C3        C        0.0        0.537037        0.150901        0        
C4        C        0.041667        0.481481        0.150901        0        
C1        C        0.0        0.574075        0.150901        0        
C2        C        0.041667        0.62963        0.150901        0        
C3        C        0.0        0.648148        0.150901        0        
C4        C        0.041667        0.592592        0.150901        0        
C1        C        0.083333        0.018519        0.150901        0        
C2        C        0.125        0.074075        0.150901        0        
C3        C        0.083333        0.092592        0.150901        0        
C4        C        0.125        0.037037        0.150901        0        
C1        C        0.083333        0.12963        0.150901        0        
C2        C        0.125        0.185185        0.150901        0        
C3        C        0.083333        0.203703        0.150901        0        
C4        C        0.125        0.148148        0.150901        0        
C1        C        0.083333        0.240741        0.150901        0        
C2        C        0.125        0.296297        0.150901        0        
C3        C        0.083333        0.314815        0.150901        0        
C4        C        0.125        0.259259        0.150901        0        
C1        C        0.083333        0.351852        0.150901        0        
C2        C        0.125        0.407408        0.150901        0        
C3        C        0.083333        0.425925        0.150901        0        
C4        C        0.125        0.37037        0.150901        0        
C1        C        0.083333        0.462963        0.150901        0        
C2        C        0.125        0.518519        0.150901        0        
C3        C        0.083333        0.537037        0.150901        0        
C4        C        0.125        0.481481        0.150901        0        
C1        C        0.083333        0.574075        0.150901        0        
C2        C        0.125        0.62963        0.150901        0        
C3        C        0.083333        0.648148        0.150901        0        
C4        C        0.125        0.592592        0.150901        0        
C1        C        0.166667        0.018519        0.150901        0        
C2        C        0.208333        0.074075        0.150901        0        
C3        C        0.166667        0.092592        0.150901        0        
C4        C        0.208333        0.037037        0.150901        0        
C1        C        0.166667        0.12963        0.150901        0        
C2        C        0.208333        0.185185        0.150901        0        
C3        C        0.166667        0.203703        0.150901        0        
C4        C        0.208333        0.148148        0.150901        0        
C1        C        0.166667        0.240741        0.150901        0        
C2        C        0.208333        0.296297        0.150901        0        
C3        C        0.166667        0.314815        0.150901        0        
C4        C        0.208333        0.259259        0.150901        0        
C1        C        0.166667        0.351852        0.150901        0        
C2        C        0.208333        0.407408        0.150901        0        
C3        C        0.166667        0.425925        0.150901        0        
C4        C        0.208333        0.37037        0.150901        0        
C1        C        0.166667        0.462963        0.150901        0        
C2        C        0.208333        0.518519        0.150901        0        
C3        C        0.166667        0.537037        0.150901        0        
C4        C        0.208333        0.481481        0.150901        0        
C1        C        0.166667        0.574075        0.150901        0        
C2        C        0.208333        0.62963        0.150901        0        
C3        C        0.166667        0.648148        0.150901        0        
C4        C        0.208333        0.592592        0.150901        0        
C1        C        0.25        0.018519        0.150901        0        
C2        C        0.291667        0.074075        0.150901        0        
C3        C        0.25        0.092592        0.150901        0        
C4        C        0.291667        0.037037        0.150901        0        
C1        C        0.25        0.12963        0.150901        0        
C2        C        0.291667        0.185185        0.150901        0        
C3        C        0.25        0.203703        0.150901        0        
C4        C        0.291667        0.148148        0.150901        0        
C1        C        0.25        0.240741        0.150901        0        
C2        C        0.291667        0.296297        0.150901        0        
C3        C        0.25        0.314815        0.150901        0        
C4        C        0.291667        0.259259        0.150901        0        
C1        C        0.25        0.351852        0.150901        0        
C2        C        0.291667        0.407408        0.150901        0        
C3        C        0.25        0.425925        0.150901        0        
C4        C        0.291667        0.37037        0.150901        0        
C1        C        0.25        0.462963        0.150901        0        
C2        C        0.291667        0.518519        0.150901        0        
C3        C        0.25        0.537037        0.150901        0        
C4        C        0.291667        0.481481        0.150901        0        
C1        C        0.25        0.574075        0.150901        0        
C2        C        0.291667        0.62963        0.150901        0        
C3        C        0.25        0.648148        0.150901        0        
C4        C        0.291667        0.592592        0.150901        0        
C1        C        0.333333        0.018519        0.150901        0        
C2        C        0.375        0.074075        0.150901        0        
C3        C        0.333333        0.092592        0.150901        0        
C4        C        0.375        0.037037        0.150901        0        
C1        C        0.333333        0.12963        0.150901        0        
C2        C        0.375        0.185185        0.150901        0        
C3        C        0.333333        0.203703        0.150901        0        
C4        C        0.375        0.148148        0.150901        0        
C1        C        0.333333        0.240741        0.150901        0        
C2        C        0.375        0.296297        0.150901        0        
C3        C        0.333333        0.314815        0.150901        0        
C4        C        0.375        0.259259        0.150901        0        
C1        C        0.333333        0.351852        0.150901        0        
C2        C        0.375        0.407408        0.150901        0        
C3        C        0.333333        0.425925        0.150901        0        
C4        C        0.375        0.37037        0.150901        0        
C1        C        0.333333        0.462963        0.150901        0        
C2        C        0.375        0.518519        0.150901        0        
C3        C        0.333333        0.537037        0.150901        0        
C4        C        0.375        0.481481        0.150901        0        
C1        C        0.333333        0.574075        0.150901        0        
C2        C        0.375        0.62963        0.150901        0        
C3        C        0.333333        0.648148        0.150901        0        
C4        C        0.375        0.592592        0.150901        0        
C1        C        0.416667        0.018519        0.150901        0        
C2        C        0.458333        0.074075        0.150901        0        
C3        C        0.416667        0.092592        0.150901        0        
C4        C        0.458333        0.037037        0.150901        0        
C1        C        0.416667        0.12963        0.150901        0        
C2        C        0.458333        0.185185        0.150901        0        
C3        C        0.416667        0.203703        0.150901        0        
C4        C        0.458333        0.148148        0.150901        0        
C1        C        0.416667        0.240741        0.150901        0        
C2        C        0.458333        0.296297        0.150901        0        
C3        C        0.416667        0.314815        0.150901        0        
C4        C        0.458333        0.259259        0.150901        0        
C1        C        0.416667        0.351852        0.150901        0        
C2        C        0.458333        0.407408        0.150901        0        
C3        C        0.416667        0.425925        0.150901        0        
C4        C        0.458333        0.37037        0.150901        0        
C1        C        0.416667        0.462963        0.150901        0        
C2        C        0.458333        0.518519        0.150901        0        
C3        C        0.416667        0.537037        0.150901        0        
C4        C        0.458333        0.481481        0.150901        0        
C1        C        0.416667        0.574075        0.150901        0        
C2        C        0.458333        0.62963        0.150901        0        
C3        C        0.416667        0.648148        0.150901        0        
C4        C        0.458333        0.592592        0.150901        0        
C1        C        0.5        0.018519        0.150901        0        
C2        C        0.541667        0.074075        0.150901        0        
C3        C        0.5        0.092592        0.150901        0        
C4        C        0.541667        0.037037        0.150901        0        
C1        C        0.5        0.12963        0.150901        0        
C2        C        0.541667        0.185185        0.150901        0        
C3        C        0.5        0.203703        0.150901        0        
C4        C        0.541667        0.148148        0.150901        0        
C1        C        0.5        0.240741        0.150901        0        
C2        C        0.541667        0.296297        0.150901        0        
C3        C        0.5        0.314815        0.150901        0        
C4        C        0.541667        0.259259        0.150901        0        
C1        C        0.5        0.351852        0.150901        0        
C2        C        0.541667        0.407408        0.150901        0        
C3        C        0.5        0.425925        0.150901        0        
C4        C        0.541667        0.37037        0.150901        0        
C1        C        0.5        0.462963        0.150901        0        
C2        C        0.541667        0.518519        0.150901        0        
C3        C        0.5        0.537037        0.150901        0        
C4        C        0.541667        0.481481        0.150901        0        
C1        C        0.5        0.574075        0.150901        0        
C2        C        0.541667        0.62963        0.150901        0        
C3        C        0.5        0.648148        0.150901        0        
C4        C        0.541667        0.592592        0.150901        0        
C1        C        0.583333        0.018519        0.150901        0        
C2        C        0.625        0.074075        0.150901        0        
C3        C        0.583333        0.092592        0.150901        0        
C4        C        0.625        0.037037        0.150901        0        
C1        C        0.583333        0.12963        0.150901        0        
C2        C        0.625        0.185185        0.150901        0        
C3        C        0.583333        0.203703        0.150901        0        
C4        C        0.625        0.148148        0.150901        0        
C1        C        0.583333        0.240741        0.150901        0        
C2        C        0.625        0.296297        0.150901        0        
C3        C        0.583333        0.314815        0.150901        0        
C4        C        0.625        0.259259        0.150901        0        
C1        C        0.583333        0.351852        0.150901        0        
C2        C        0.625        0.407408        0.150901        0        
C3        C        0.583333        0.425925        0.150901        0        
C4        C        0.625        0.37037        0.150901        0        
C1        C        0.583333        0.462963        0.150901        0        
C2        C        0.625        0.518519        0.150901        0        
C3        C        0.583333        0.537037        0.150901        0        
C4        C        0.625        0.481481        0.150901        0        
C1        C        0.583333        0.574075        0.150901        0        
C2        C        0.625        0.62963        0.150901        0        
C3        C        0.583333        0.648148        0.150901        0        
C4        C        0.625        0.592592        0.150901        0        
C1        C        0.666667        0.018519        0.150901        0        
C2        C        0.708333        0.074075        0.150901        0        
C3        C        0.666667        0.092592        0.150901        0        
C4        C        0.708333        0.037037        0.150901        0        
C1        C        0.666667        0.12963        0.150901        0        
C2        C        0.708333        0.185185        0.150901        0        
C3        C        0.666667        0.203703        0.150901        0        
C4        C        0.708333        0.148148        0.150901        0        
C1        C        0.666667        0.240741        0.150901        0        
C2        C        0.708333        0.296297        0.150901        0        
C3        C        0.666667        0.314815        0.150901        0        
C4        C        0.708333        0.259259        0.150901        0        
C1        C        0.666667        0.351852        0.150901        0        
C2        C        0.708333        0.407408        0.150901        0        
C3        C        0.666667        0.425925        0.150901        0        
C4        C        0.708333        0.37037        0.150901        0        
C1        C        0.666667        0.462963        0.150901        0        
C2        C        0.708333        0.518519        0.150901        0        
C3        C        0.666667        0.537037        0.150901        0        
C4        C        0.708333        0.481481        0.150901        0        
C1        C        0.666667        0.574075        0.150901        0        
C2        C        0.708333        0.62963        0.150901        0        
C3        C        0.666667        0.648148        0.150901        0        
C4        C        0.708333        0.592592        0.150901        0        
C1        C        0.75        0.018519        0.150901        0        
C2        C        0.791667        0.074075        0.150901        0        
C3        C        0.75        0.092592        0.150901        0        
C4        C        0.791667        0.037037        0.150901        0        
C1        C        0.75        0.12963        0.150901        0        
C2        C        0.791667        0.185185        0.150901        0        
C3        C        0.75        0.203703        0.150901        0        
C4        C        0.791667        0.148148        0.150901        0        
C1        C        0.75        0.240741        0.150901        0        
C2        C        0.791667        0.296297        0.150901        0        
C3        C        0.75        0.314815        0.150901        0        
C4        C        0.791667        0.259259        0.150901        0        
C1        C        0.75        0.351852        0.150901        0        
C2        C        0.791667        0.407408        0.150901        0        
C3        C        0.75        0.425925        0.150901        0        
C4        C        0.791667        0.37037        0.150901        0        
C1        C        0.75        0.462963        0.150901        0        
C2        C        0.791667        0.518519        0.150901        0        
C3        C        0.75        0.537037        0.150901        0        
C4        C        0.791667        0.481481        0.150901        0        
C1        C        0.75        0.574075        0.150901        0        
C2        C        0.791667        0.62963        0.150901        0        
C3        C        0.75        0.648148        0.150901        0        
C4        C        0.791667        0.592592        0.150901        0        
C1        C        0.833333        0.018519        0.150901        0        
C2        C        0.875        0.074075        0.150901        0        
C3        C        0.833333        0.092592        0.150901        0        
C4        C        0.875        0.037037        0.150901        0        
C1        C        0.833333        0.12963        0.150901        0        
C2        C        0.875        0.185185        0.150901        0        
C3        C        0.833333        0.203703        0.150901        0        
C4        C        0.875        0.148148        0.150901        0        
C1        C        0.833333        0.240741        0.150901        0        
C2        C        0.875        0.296297        0.150901        0        
C3        C        0.833333        0.314815        0.150901        0        
C4        C        0.875        0.259259        0.150901        0        
C1        C        0.833333        0.351852        0.150901        0        
C2        C        0.875        0.407408        0.150901        0        
C3        C        0.833333        0.425925        0.150901        0        
C4        C        0.875        0.37037        0.150901        0        
C1        C        0.833333        0.462963        0.150901        0        
C2        C        0.875        0.518519        0.150901        0        
C3        C        0.833333        0.537037        0.150901        0        
C4        C        0.875        0.481481        0.150901        0        
C1        C        0.833333        0.574075        0.150901        0        
C2        C        0.875        0.62963        0.150901        0        
C3        C        0.833333        0.648148        0.150901        0        
C4        C        0.875        0.592592        0.150901        0        
C1        C        0.916667        0.018519        0.150901        0        
C2        C        0.958333        0.074075        0.150901        0        
C3        C        0.916667        0.092592        0.150901        0        
C4        C        0.958333        0.037037        0.150901        0        
C1        C        0.916667        0.12963        0.150901        0        
C2        C        0.958333        0.185185        0.150901        0        
C3        C        0.916667        0.203703        0.150901        0        
C4        C        0.958333        0.148148        0.150901        0        
C1        C        0.916667        0.240741        0.150901        0        
C2        C        0.958333        0.296297        0.150901        0        
C3        C        0.916667        0.314815        0.150901        0        
C4        C        0.958333        0.259259        0.150901        0        
C1        C        0.916667        0.351852        0.150901        0        
C2        C        0.958333        0.407408        0.150901        0        
C3        C        0.916667        0.425925        0.150901        0        
C4        C        0.958333        0.37037        0.150901        0        
C1        C        0.916667        0.462963        0.150901        0        
C2        C        0.958333        0.518519        0.150901        0        
C3        C        0.916667        0.537037        0.150901        0        
C4        C        0.958333        0.481481        0.150901        0        
C1        C        0.916667        0.574075        0.150901        0        
C2        C        0.958333        0.62963        0.150901        0        
C3        C        0.916667        0.648148        0.150901        0        
C4        C        0.958333        0.592592        0.150901        0        
C1        C        0.0        0.685186        0.150901        0        
C1        C        0.083333        0.685186        0.150901        0        
C1        C        0.166667        0.685186        0.150901        0        
C1        C        0.25        0.685186        0.150901        0        
C1        C        0.333333        0.685186        0.150901        0        
C1        C        0.416667        0.685186        0.150901        0        
C1        C        0.5        0.685186        0.150901        0        
C1        C        0.583333        0.685186        0.150901        0        
C1        C        0.666667        0.685186        0.150901        0        
C1        C        0.75        0.685186        0.150901        0        
C1        C        0.833333        0.685186        0.150901        0        
C1        C        0.916667        0.685186        0.150901        0        
C2        C        0.041667        0.740741        0.150901        0        
C2        C        0.125        0.740741        0.150901        0        
C2        C        0.208333        0.740741        0.150901        0        
C2        C        0.291667        0.740741        0.150901        0        
C2        C        0.375        0.740741        0.150901        0        
C2        C        0.458333        0.740741        0.150901        0        
C2        C        0.541667        0.740741        0.150901        0        
C2        C        0.625        0.740741        0.150901        0        
C2        C        0.708333        0.740741        0.150901        0        
C2        C        0.791667        0.740741        0.150901        0        
C2        C        0.875        0.740741        0.150901        0        
C2        C        0.958333        0.740741        0.150901        0        
C3        C        0.0        0.759259        0.150901        0        
C3        C        0.083333        0.759259        0.150901        0        
C3        C        0.166667        0.759259        0.150901        0        
C3        C        0.25        0.759259        0.150901        0        
C3        C        0.333333        0.759259        0.150901        0        
C3        C        0.416667        0.759259        0.150901        0        
C3        C        0.5        0.759259        0.150901        0        
C3        C        0.583333        0.759259        0.150901        0        
C3        C        0.666667        0.759259        0.150901        0        
C3        C        0.75        0.759259        0.150901        0        
C3        C        0.833333        0.759259        0.150901        0        
C3        C        0.916667        0.759259        0.150901        0        
C4        C        0.041667        0.703703        0.150901        0        
C4        C        0.125        0.703703        0.150901        0        
C4        C        0.208333        0.703703        0.150901        0        
C4        C        0.291667        0.703703        0.150901        0        
C4        C        0.375        0.703703        0.150901        0        
C4        C        0.458333        0.703703        0.150901        0        
C4        C        0.541667        0.703703        0.150901        0        
C4        C        0.625        0.703703        0.150901        0        
C4        C        0.708333        0.703703        0.150901        0        
C4        C        0.791667        0.703703        0.150901        0        
C4        C        0.875        0.703703        0.150901        0        
C4        C        0.958333        0.703703        0.150901        0        
C1        C        0.0        0.796297        0.150901        0        
C1        C        0.083333        0.796297        0.150901        0        
C1        C        0.166667        0.796297        0.150901        0        
C1        C        0.25        0.796297        0.150901        0        
C1        C        0.333333        0.796297        0.150901        0        
C1        C        0.416667        0.796297        0.150901        0        
C1        C        0.5        0.796297        0.150901        0        
C1        C        0.583333        0.796297        0.150901        0        
C1        C        0.666667        0.796297        0.150901        0        
C1        C        0.75        0.796297        0.150901        0        
C1        C        0.833333        0.796297        0.150901        0        
C1        C        0.916667        0.796297        0.150901        0        
C2        C        0.041667        0.851852        0.150901        0        
C2        C        0.125        0.851852        0.150901        0        
C2        C        0.208333        0.851852        0.150901        0        
C2        C        0.291667        0.851852        0.150901        0        
C2        C        0.375        0.851852        0.150901        0        
C2        C        0.458333        0.851852        0.150901        0        
C2        C        0.541667        0.851852        0.150901        0        
C2        C        0.625        0.851852        0.150901        0        
C2        C        0.708333        0.851852        0.150901        0        
C2        C        0.791667        0.851852        0.150901        0        
C2        C        0.875        0.851852        0.150901        0        
C2        C        0.958333        0.851852        0.150901        0        
C3        C        0.0        0.87037        0.150901        0        
C3        C        0.083333        0.87037        0.150901        0        
C3        C        0.166667        0.87037        0.150901        0        
C3        C        0.25        0.87037        0.150901        0        
C3        C        0.333333        0.87037        0.150901        0        
C3        C        0.416667        0.87037        0.150901        0        
C3        C        0.5        0.87037        0.150901        0        
C3        C        0.583333        0.87037        0.150901        0        
C3        C        0.666667        0.87037        0.150901        0        
C3        C        0.75        0.87037        0.150901        0        
C3        C        0.833333        0.87037        0.150901        0        
C3        C        0.916667        0.87037        0.150901        0        
C4        C        0.041667        0.814814        0.150901        0        
C4        C        0.125        0.814814        0.150901        0        
C4        C        0.208333        0.814814        0.150901        0        
C4        C        0.291667        0.814814        0.150901        0        
C4        C        0.375        0.814814        0.150901        0        
C4        C        0.458333        0.814814        0.150901        0        
C4        C        0.541667        0.814814        0.150901        0        
C4        C        0.625        0.814814        0.150901        0        
C4        C        0.708333        0.814814        0.150901        0        
C4        C        0.791667        0.814814        0.150901        0        
C4        C        0.875        0.814814        0.150901        0        
C4        C        0.958333        0.814814        0.150901        0        
C1        C        0.0        0.907408        0.150901        0        
C1        C        0.083333        0.907408        0.150901        0        
C1        C        0.166667        0.907408        0.150901        0        
C1        C        0.25        0.907408        0.150901        0        
C1        C        0.333333        0.907408        0.150901        0        
C1        C        0.416667        0.907408        0.150901        0        
C1        C        0.5        0.907408        0.150901        0        
C1        C        0.583333        0.907408        0.150901        0        
C1        C        0.666667        0.907408        0.150901        0        
C1        C        0.75        0.907408        0.150901        0        
C1        C        0.833333        0.907408        0.150901        0        
C1        C        0.916667        0.907408        0.150901        0        
C2        C        0.041667        0.962963        0.150901        0        
C2        C        0.125        0.962963        0.150901        0        
C2        C        0.208333        0.962963        0.150901        0        
C2        C        0.291667        0.962963        0.150901        0        
C2        C        0.375        0.962963        0.150901        0        
C2        C        0.458333        0.962963        0.150901        0        
C2        C        0.541667        0.962963        0.150901        0        
C2        C        0.625        0.962963        0.150901        0        
C2        C        0.708333        0.962963        0.150901        0        
C2        C        0.791667        0.962963        0.150901        0        
C2        C        0.875        0.962963        0.150901        0        
C2        C        0.958333        0.962963        0.150901        0        
C3        C        0.0        0.981481        0.150901        0        
C3        C        0.083333        0.981481        0.150901        0        
C3        C        0.166667        0.981481        0.150901        0        
C3        C        0.25        0.981481        0.150901        0        
C3        C        0.333333        0.981481        0.150901        0        
C3        C        0.416667        0.981481        0.150901        0        
C3        C        0.5        0.981481        0.150901        0        
C3        C        0.583333        0.981481        0.150901        0        
C3        C        0.666667        0.981481        0.150901        0        
C3        C        0.75        0.981481        0.150901        0        
C3        C        0.833333        0.981481        0.150901        0        
C3        C        0.916667        0.981481        0.150901        0        
C4        C        0.041667        0.925925        0.150901        0        
C4        C        0.125        0.925925        0.150901        0        
C4        C        0.208333        0.925925        0.150901        0        
C4        C        0.291667        0.925925        0.150901        0        
C4        C        0.375        0.925925        0.150901        0        
C4        C        0.458333        0.925925        0.150901        0        
C4        C        0.541667        0.925925        0.150901        0        
C4        C        0.625        0.925925        0.150901        0        
C4        C        0.708333        0.925925        0.150901        0        
C4        C        0.791667        0.925925        0.150901        0        
C4        C        0.875        0.925925        0.150901        0        
C4        C        0.958333        0.925925        0.150901        0        
C1        C        0.0        0.018519        0.301802        0        
C2        C        0.041667        0.074075        0.301802        0        
C3        C        0.0        0.092592        0.301802        0        
C4        C        0.041667        0.037037        0.301802        0        
C1        C        0.0        0.12963        0.301802        0        
C2        C        0.041667        0.185185        0.301802        0        
C3        C        0.0        0.203703        0.301802        0        
C4        C        0.041667        0.148148        0.301802        0        
C1        C        0.0        0.240741        0.301802        0        
C2        C        0.041667        0.296297        0.301802        0        
C3        C        0.0        0.314815        0.301802        0        
C4        C        0.041667        0.259259        0.301802        0        
C1        C        0.0        0.351852        0.301802        0        
C2        C        0.041667        0.407408        0.301802        0        
C3        C        0.0        0.425925        0.301802        0        
C4        C        0.041667        0.37037        0.301802        0        
C1        C        0.0        0.462963        0.301802        0        
C2        C        0.041667        0.518519        0.301802        0        
C3        C        0.0        0.537037        0.301802        0        
C4        C        0.041667        0.481481        0.301802        0        
C1        C        0.0        0.574075        0.301802        0        
C2        C        0.041667        0.62963        0.301802        0        
C3        C        0.0        0.648148        0.301802        0        
C4        C        0.041667        0.592592        0.301802        0        
C1        C        0.083333        0.018519        0.301802        0        
C2        C        0.125        0.074075        0.301802        0        
C3        C        0.083333        0.092592        0.301802        0        
C4        C        0.125        0.037037        0.301802        0        
C1        C        0.083333        0.12963        0.301802        0        
C2        C        0.125        0.185185        0.301802        0        
C3        C        0.083333        0.203703        0.301802        0        
C4        C        0.125        0.148148        0.301802        0        
C1        C        0.083333        0.240741        0.301802        0        
C2        C        0.125        0.296297        0.301802        0        
C3        C        0.083333        0.314815        0.301802        0        
C4        C        0.125        0.259259        0.301802        0        
C1        C        0.083333        0.351852        0.301802        0        
C2        C        0.125        0.407408        0.301802        0        
C3        C        0.083333        0.425925        0.301802        0        
C4        C        0.125        0.37037        0.301802        0        
C1        C        0.083333        0.462963        0.301802        0        
C2        C        0.125        0.518519        0.301802        0        
C3        C        0.083333        0.537037        0.301802        0        
C4        C        0.125        0.481481        0.301802        0        
C1        C        0.083333        0.574075        0.301802        0        
C2        C        0.125        0.62963        0.301802        0        
C3        C        0.083333        0.648148        0.301802        0        
C4        C        0.125        0.592592        0.301802        0        
C1        C        0.166667        0.018519        0.301802        0        
C2        C        0.208333        0.074075        0.301802        0        
C3        C        0.166667        0.092592        0.301802        0        
C4        C        0.208333        0.037037        0.301802        0        
C1        C        0.166667        0.12963        0.301802        0        
C2        C        0.208333        0.185185        0.301802        0        
C3        C        0.166667        0.203703        0.301802        0        
C4        C        0.208333        0.148148        0.301802        0        
C1        C        0.166667        0.240741        0.301802        0        
C2        C        0.208333        0.296297        0.301802        0        
C3        C        0.166667        0.314815        0.301802        0        
C4        C        0.208333        0.259259        0.301802        0        
C1        C        0.166667        0.351852        0.301802        0        
C2        C        0.208333        0.407408        0.301802        0        
C3        C        0.166667        0.425925        0.301802        0        
C4        C        0.208333        0.37037        0.301802        0        
C1        C        0.166667        0.462963        0.301802        0        
C2        C        0.208333        0.518519        0.301802        0        
C3        C        0.166667        0.537037        0.301802        0        
C4        C        0.208333        0.481481        0.301802        0        
C1        C        0.166667        0.574075        0.301802        0        
C2        C        0.208333        0.62963        0.301802        0        
C3        C        0.166667        0.648148        0.301802        0        
C4        C        0.208333        0.592592        0.301802        0        
C1        C        0.25        0.018519        0.301802        0        
C2        C        0.291667        0.074075        0.301802        0        
C3        C        0.25        0.092592        0.301802        0        
C4        C        0.291667        0.037037        0.301802        0        
C1        C        0.25        0.12963        0.301802        0        
C2        C        0.291667        0.185185        0.301802        0        
C3        C        0.25        0.203703        0.301802        0        
C4        C        0.291667        0.148148        0.301802        0        
C1        C        0.25        0.240741        0.301802        0        
C2        C        0.291667        0.296297        0.301802        0        
C3        C        0.25        0.314815        0.301802        0        
C4        C        0.291667        0.259259        0.301802        0        
C1        C        0.25        0.351852        0.301802        0        
C2        C        0.291667        0.407408        0.301802        0        
C3        C        0.25        0.425925        0.301802        0        
C4        C        0.291667        0.37037        0.301802        0        
C1        C        0.25        0.462963        0.301802        0        
C2        C        0.291667        0.518519        0.301802        0        
C3        C        0.25        0.537037        0.301802        0        
C4        C        0.291667        0.481481        0.301802        0        
C1        C        0.25        0.574075        0.301802        0        
C2        C        0.291667        0.62963        0.301802        0        
C3        C        0.25        0.648148        0.301802        0        
C4        C        0.291667        0.592592        0.301802        0        
C1        C        0.333333        0.018519        0.301802        0        
C2        C        0.375        0.074075        0.301802        0        
C3        C        0.333333        0.092592        0.301802        0        
C4        C        0.375        0.037037        0.301802        0        
C1        C        0.333333        0.12963        0.301802        0        
C2        C        0.375        0.185185        0.301802        0        
C3        C        0.333333        0.203703        0.301802        0        
C4        C        0.375        0.148148        0.301802        0        
C1        C        0.333333        0.240741        0.301802        0        
C2        C        0.375        0.296297        0.301802        0        
C3        C        0.333333        0.314815        0.301802        0        
C4        C        0.375        0.259259        0.301802        0        
C1        C        0.333333        0.351852        0.301802        0        
C2        C        0.375        0.407408        0.301802        0        
C3        C        0.333333        0.425925        0.301802        0        
C4        C        0.375        0.37037        0.301802        0        
C1        C        0.333333        0.462963        0.301802        0        
C2        C        0.375        0.518519        0.301802        0        
C3        C        0.333333        0.537037        0.301802        0        
C4        C        0.375        0.481481        0.301802        0        
C1        C        0.333333        0.574075        0.301802        0        
C2        C        0.375        0.62963        0.301802        0        
C3        C        0.333333        0.648148        0.301802        0        
C4        C        0.375        0.592592        0.301802        0        
C1        C        0.416667        0.018519        0.301802        0        
C2        C        0.458333        0.074075        0.301802        0        
C3        C        0.416667        0.092592        0.301802        0        
C4        C        0.458333        0.037037        0.301802        0        
C1        C        0.416667        0.12963        0.301802        0        
C2        C        0.458333        0.185185        0.301802        0        
C3        C        0.416667        0.203703        0.301802        0        
C4        C        0.458333        0.148148        0.301802        0        
C1        C        0.416667        0.240741        0.301802        0        
C2        C        0.458333        0.296297        0.301802        0        
C3        C        0.416667        0.314815        0.301802        0        
C4        C        0.458333        0.259259        0.301802        0        
C1        C        0.416667        0.351852        0.301802        0        
C2        C        0.458333        0.407408        0.301802        0        
C3        C        0.416667        0.425925        0.301802        0        
C4        C        0.458333        0.37037        0.301802        0        
C1        C        0.416667        0.462963        0.301802        0        
C2        C        0.458333        0.518519        0.301802        0        
C3        C        0.416667        0.537037        0.301802        0        
C4        C        0.458333        0.481481        0.301802        0        
C1        C        0.416667        0.574075        0.301802        0        
C2        C        0.458333        0.62963        0.301802        0        
C3        C        0.416667        0.648148        0.301802        0        
C4        C        0.458333        0.592592        0.301802        0        
C1        C        0.5        0.018519        0.301802        0        
C2        C        0.541667        0.074075        0.301802        0        
C3        C        0.5        0.092592        0.301802        0        
C4        C        0.541667        0.037037        0.301802        0        
C1        C        0.5        0.12963        0.301802        0        
C2        C        0.541667        0.185185        0.301802        0        
C3        C        0.5        0.203703        0.301802        0        
C4        C        0.541667        0.148148        0.301802        0        
C1        C        0.5        0.240741        0.301802        0        
C2        C        0.541667        0.296297        0.301802        0        
C3        C        0.5        0.314815        0.301802        0        
C4        C        0.541667        0.259259        0.301802        0        
C1        C        0.5        0.351852        0.301802        0        
C2        C        0.541667        0.407408        0.301802        0        
C3        C        0.5        0.425925        0.301802        0        
C4        C        0.541667        0.37037        0.301802        0        
C1        C        0.5        0.462963        0.301802        0        
C2        C        0.541667        0.518519        0.301802        0        
C3        C        0.5        0.537037        0.301802        0        
C4        C        0.541667        0.481481        0.301802        0        
C1        C        0.5        0.574075        0.301802        0        
C2        C        0.541667        0.62963        0.301802        0        
C3        C        0.5        0.648148        0.301802        0        
C4        C        0.541667        0.592592        0.301802        0        
C1        C        0.583333        0.018519        0.301802        0        
C2        C        0.625        0.074075        0.301802        0        
C3        C        0.583333        0.092592        0.301802        0        
C4        C        0.625        0.037037        0.301802        0        
C1        C        0.583333        0.12963        0.301802        0        
C2        C        0.625        0.185185        0.301802        0        
C3        C        0.583333        0.203703        0.301802        0        
C4        C        0.625        0.148148        0.301802        0        
C1        C        0.583333        0.240741        0.301802        0        
C2        C        0.625        0.296297        0.301802        0        
C3        C        0.583333        0.314815        0.301802        0        
C4        C        0.625        0.259259        0.301802        0        
C1        C        0.583333        0.351852        0.301802        0        
C2        C        0.625        0.407408        0.301802        0        
C3        C        0.583333        0.425925        0.301802        0        
C4        C        0.625        0.37037        0.301802        0        
C1        C        0.583333        0.462963        0.301802        0        
C2        C        0.625        0.518519        0.301802        0        
C3        C        0.583333        0.537037        0.301802        0        
C4        C        0.625        0.481481        0.301802        0        
C1        C        0.583333        0.574075        0.301802        0        
C2        C        0.625        0.62963        0.301802        0        
C3        C        0.583333        0.648148        0.301802        0        
C4        C        0.625        0.592592        0.301802        0        
C1        C        0.666667        0.018519        0.301802        0        
C2        C        0.708333        0.074075        0.301802        0        
C3        C        0.666667        0.092592        0.301802        0        
C4        C        0.708333        0.037037        0.301802        0        
C1        C        0.666667        0.12963        0.301802        0        
C2        C        0.708333        0.185185        0.301802        0        
C3        C        0.666667        0.203703        0.301802        0        
C4        C        0.708333        0.148148        0.301802        0        
C1        C        0.666667        0.240741        0.301802        0        
C2        C        0.708333        0.296297        0.301802        0        
C3        C        0.666667        0.314815        0.301802        0        
C4        C        0.708333        0.259259        0.301802        0        
C1        C        0.666667        0.351852        0.301802        0        
C2        C        0.708333        0.407408        0.301802        0        
C3        C        0.666667        0.425925        0.301802        0        
C4        C        0.708333        0.37037        0.301802        0        
C1        C        0.666667        0.462963        0.301802        0        
C2        C        0.708333        0.518519        0.301802        0        
C3        C        0.666667        0.537037        0.301802        0        
C4        C        0.708333        0.481481        0.301802        0        
C1        C        0.666667        0.574075        0.301802        0        
C2        C        0.708333        0.62963        0.301802        0        
C3        C        0.666667        0.648148        0.301802        0        
C4        C        0.708333        0.592592        0.301802        0        
C1        C        0.75        0.018519        0.301802        0        
C2        C        0.791667        0.074075        0.301802        0        
C3        C        0.75        0.092592        0.301802        0        
C4        C        0.791667        0.037037        0.301802        0        
C1        C        0.75        0.12963        0.301802        0        
C2        C        0.791667        0.185185        0.301802        0        
C3        C        0.75        0.203703        0.301802        0        
C4        C        0.791667        0.148148        0.301802        0        
C1        C        0.75        0.240741        0.301802        0        
C2        C        0.791667        0.296297        0.301802        0        
C3        C        0.75        0.314815        0.301802        0        
C4        C        0.791667        0.259259        0.301802        0        
C1        C        0.75        0.351852        0.301802        0        
C2        C        0.791667        0.407408        0.301802        0        
C3        C        0.75        0.425925        0.301802        0        
C4        C        0.791667        0.37037        0.301802        0        
C1        C        0.75        0.462963        0.301802        0        
C2        C        0.791667        0.518519        0.301802        0        
C3        C        0.75        0.537037        0.301802        0        
C4        C        0.791667        0.481481        0.301802        0        
C1        C        0.75        0.574075        0.301802        0        
C2        C        0.791667        0.62963        0.301802        0        
C3        C        0.75        0.648148        0.301802        0        
C4        C        0.791667        0.592592        0.301802        0        
C1        C        0.833333        0.018519        0.301802        0        
C2        C        0.875        0.074075        0.301802        0        
C3        C        0.833333        0.092592        0.301802        0        
C4        C        0.875        0.037037        0.301802        0        
C1        C        0.833333        0.12963        0.301802        0        
C2        C        0.875        0.185185        0.301802        0        
C3        C        0.833333        0.203703        0.301802        0        
C4        C        0.875        0.148148        0.301802        0        
C1        C        0.833333        0.240741        0.301802        0        
C2        C        0.875        0.296297        0.301802        0        
C3        C        0.833333        0.314815        0.301802        0        
C4        C        0.875        0.259259        0.301802        0        
C1        C        0.833333        0.351852        0.301802        0        
C2        C        0.875        0.407408        0.301802        0        
C3        C        0.833333        0.425925        0.301802        0        
C4        C        0.875        0.37037        0.301802        0        
C1        C        0.833333        0.462963        0.301802        0        
C2        C        0.875        0.518519        0.301802        0        
C3        C        0.833333        0.537037        0.301802        0        
C4        C        0.875        0.481481        0.301802        0        
C1        C        0.833333        0.574075        0.301802        0        
C2        C        0.875        0.62963        0.301802        0        
C3        C        0.833333        0.648148        0.301802        0        
C4        C        0.875        0.592592        0.301802        0        
C1        C        0.916667        0.018519        0.301802        0        
C2        C        0.958333        0.074075        0.301802        0        
C3        C        0.916667        0.092592        0.301802        0        
C4        C        0.958333        0.037037        0.301802        0        
C1        C        0.916667        0.12963        0.301802        0        
C2        C        0.958333        0.185185        0.301802        0        
C3        C        0.916667        0.203703        0.301802        0        
C4        C        0.958333        0.148148        0.301802        0        
C1        C        0.916667        0.240741        0.301802        0        
C2        C        0.958333        0.296297        0.301802        0        
C3        C        0.916667        0.314815        0.301802        0        
C4        C        0.958333        0.259259        0.301802        0        
C1        C        0.916667        0.351852        0.301802        0        
C2        C        0.958333        0.407408        0.301802        0        
C3        C        0.916667        0.425925        0.301802        0        
C4        C        0.958333        0.37037        0.301802        0        
C1        C        0.916667        0.462963        0.301802        0        
C2        C        0.958333        0.518519        0.301802        0        
C3        C        0.916667        0.537037        0.301802        0        
C4        C        0.958333        0.481481        0.301802        0        
C1        C        0.916667        0.574075        0.301802        0        
C2        C        0.958333        0.62963        0.301802        0        
C3        C        0.916667        0.648148        0.301802        0        
C4        C        0.958333        0.592592        0.301802        0        
C1        C        0.0        0.685186        0.301802        0        
C1        C        0.083333        0.685186        0.301802        0        
C1        C        0.166667        0.685186        0.301802        0        
C1        C        0.25        0.685186        0.301802        0        
C1        C        0.333333        0.685186        0.301802        0        
C1        C        0.416667        0.685186        0.301802        0        
C1        C        0.5        0.685186        0.301802        0        
C1        C        0.583333        0.685186        0.301802        0        
C1        C        0.666667        0.685186        0.301802        0        
C1        C        0.75        0.685186        0.301802        0        
C1        C        0.833333        0.685186        0.301802        0        
C1        C        0.916667        0.685186        0.301802        0        
C2        C        0.041667        0.740741        0.301802        0        
C2        C        0.125        0.740741        0.301802        0        
C2        C        0.208333        0.740741        0.301802        0        
C2        C        0.291667        0.740741        0.301802        0        
C2        C        0.375        0.740741        0.301802        0        
C2        C        0.458333        0.740741        0.301802        0        
C2        C        0.541667        0.740741        0.301802        0        
C2        C        0.625        0.740741        0.301802        0        
C2        C        0.708333        0.740741        0.301802        0        
C2        C        0.791667        0.740741        0.301802        0        
C2        C        0.875        0.740741        0.301802        0        
C2        C        0.958333        0.740741        0.301802        0        
C3        C        0.0        0.759259        0.301802        0        
C3        C        0.083333        0.759259        0.301802        0        
C3        C        0.166667        0.759259        0.301802        0        
C3        C        0.25        0.759259        0.301802        0        
C3        C        0.333333        0.759259        0.301802        0        
C3        C        0.416667        0.759259        0.301802        0        
C3        C        0.5        0.759259        0.301802        0        
C3        C        0.583333        0.759259        0.301802        0        
C3        C        0.666667        0.759259        0.301802        0        
C3        C        0.75        0.759259        0.301802        0        
C3        C        0.833333        0.759259        0.301802        0        
C3        C        0.916667        0.759259        0.301802        0        
C4        C        0.041667        0.703703        0.301802        0        
C4        C        0.125        0.703703        0.301802        0        
C4        C        0.208333        0.703703        0.301802        0        
C4        C        0.291667        0.703703        0.301802        0        
C4        C        0.375        0.703703        0.301802        0        
C4        C        0.458333        0.703703        0.301802        0        
C4        C        0.541667        0.703703        0.301802        0        
C4        C        0.625        0.703703        0.301802        0        
C4        C        0.708333        0.703703        0.301802        0        
C4        C        0.791667        0.703703        0.301802        0        
C4        C        0.875        0.703703        0.301802        0        
C4        C        0.958333        0.703703        0.301802        0        
C1        C        0.0        0.796297        0.301802        0        
C1        C        0.083333        0.796297        0.301802        0        
C1        C        0.166667        0.796297        0.301802        0        
C1        C        0.25        0.796297        0.301802        0        
C1        C        0.333333        0.796297        0.301802        0        
C1        C        0.416667        0.796297        0.301802        0        
C1        C        0.5        0.796297        0.301802        0        
C1        C        0.583333        0.796297        0.301802        0        
C1        C        0.666667        0.796297        0.301802        0        
C1        C        0.75        0.796297        0.301802        0        
C1        C        0.833333        0.796297        0.301802        0        
C1        C        0.916667        0.796297        0.301802        0        
C2        C        0.041667        0.851852        0.301802        0        
C2        C        0.125        0.851852        0.301802        0        
C2        C        0.208333        0.851852        0.301802        0        
C2        C        0.291667        0.851852        0.301802        0        
C2        C        0.375        0.851852        0.301802        0        
C2        C        0.458333        0.851852        0.301802        0        
C2        C        0.541667        0.851852        0.301802        0        
C2        C        0.625        0.851852        0.301802        0        
C2        C        0.708333        0.851852        0.301802        0        
C2        C        0.791667        0.851852        0.301802        0        
C2        C        0.875        0.851852        0.301802        0        
C2        C        0.958333        0.851852        0.301802        0        
C3        C        0.0        0.87037        0.301802        0        
C3        C        0.083333        0.87037        0.301802        0        
C3        C        0.166667        0.87037        0.301802        0        
C3        C        0.25        0.87037        0.301802        0        
C3        C        0.333333        0.87037        0.301802        0        
C3        C        0.416667        0.87037        0.301802        0        
C3        C        0.5        0.87037        0.301802        0        
C3        C        0.583333        0.87037        0.301802        0        
C3        C        0.666667        0.87037        0.301802        0        
C3        C        0.75        0.87037        0.301802        0        
C3        C        0.833333        0.87037        0.301802        0        
C3        C        0.916667        0.87037        0.301802        0        
C4        C        0.041667        0.814814        0.301802        0        
C4        C        0.125        0.814814        0.301802        0        
C4        C        0.208333        0.814814        0.301802        0        
C4        C        0.291667        0.814814        0.301802        0        
C4        C        0.375        0.814814        0.301802        0        
C4        C        0.458333        0.814814        0.301802        0        
C4        C        0.541667        0.814814        0.301802        0        
C4        C        0.625        0.814814        0.301802        0        
C4        C        0.708333        0.814814        0.301802        0        
C4        C        0.791667        0.814814        0.301802        0        
C4        C        0.875        0.814814        0.301802        0        
C4        C        0.958333        0.814814        0.301802        0        
C1        C        0.0        0.907408        0.301802        0        
C1        C        0.083333        0.907408        0.301802        0        
C1        C        0.166667        0.907408        0.301802        0        
C1        C        0.25        0.907408        0.301802        0        
C1        C        0.333333        0.907408        0.301802        0        
C1        C        0.416667        0.907408        0.301802        0        
C1        C        0.5        0.907408        0.301802        0        
C1        C        0.583333        0.907408        0.301802        0        
C1        C        0.666667        0.907408        0.301802        0        
C1        C        0.75        0.907408        0.301802        0        
C1        C        0.833333        0.907408        0.301802        0        
C1        C        0.916667        0.907408        0.301802        0        
C2        C        0.041667        0.962963        0.301802        0        
C2        C        0.125        0.962963        0.301802        0        
C2        C        0.208333        0.962963        0.301802        0        
C2        C        0.291667        0.962963        0.301802        0        
C2        C        0.375        0.962963        0.301802        0        
C2        C        0.458333        0.962963        0.301802        0        
C2        C        0.541667        0.962963        0.301802        0        
C2        C        0.625        0.962963        0.301802        0        
C2        C        0.708333        0.962963        0.301802        0        
C2        C        0.791667        0.962963        0.301802        0        
C2        C        0.875        0.962963        0.301802        0        
C2        C        0.958333        0.962963        0.301802        0        
C3        C        0.0        0.981481        0.301802        0        
C3        C        0.083333        0.981481        0.301802        0        
C3        C        0.166667        0.981481        0.301802        0        
C3        C        0.25        0.981481        0.301802        0        
C3        C        0.333333        0.981481        0.301802        0        
C3        C        0.416667        0.981481        0.301802        0        
C3        C        0.5        0.981481        0.301802        0        
C3        C        0.583333        0.981481        0.301802        0        
C3        C        0.666667        0.981481        0.301802        0        
C3        C        0.75        0.981481        0.301802        0        
C3        C        0.833333        0.981481        0.301802        0        
C3        C        0.916667        0.981481        0.301802        0        
C4        C        0.041667        0.925925        0.301802        0        
C4        C        0.125        0.925925        0.301802        0        
C4        C        0.208333        0.925925        0.301802        0        
C4        C        0.291667        0.925925        0.301802        0        
C4        C        0.375        0.925925        0.301802        0        
C4        C        0.458333        0.925925        0.301802        0        
C4        C        0.541667        0.925925        0.301802        0        
C4        C        0.625        0.925925        0.301802        0        
C4        C        0.708333        0.925925        0.301802        0        
C4        C        0.791667        0.925925        0.301802        0        
C4        C        0.875        0.925925        0.301802        0        
C4        C        0.958333        0.925925        0.301802        0        
