data_graphite_ortho

_audit_creation_method RASPA-1.0
_audit_creation_date 2012-2-3
_audit_author_name 'David Dubbeldam'

_cell_length_a    39.36    
_cell_length_b    38.34    
_cell_length_c    34.6    
_cell_angle_alpha 90
_cell_angle_beta  90
_cell_angle_gamma 90
_cell_volume      52213.56      

_symmetry_cell_setting          triclinic
_symmetry_space_group_name_Hall 'P 1'
_symmetry_space_group_name_H-M  'P 1'
_symmetry_Int_Tables_number     1

_symmetry_equiv_pos_as_xyz 'x,y,z'

loop_
_atom_site_label
_atom_site_type_symbol
_atom_site_fract_x
_atom_site_fract_y
_atom_site_fract_z
_atom_site_charge
C_FG        C        0.0        0.018519        0.05113291907514451        0.2        
C2        C        0.03125        0.074075        0.05113291907514451        0        
C3        C        0.0        0.092592        0.05113291907514451        0        
C4        C        0.03125        0.037037        0.05113291907514451        0        
C1        C        0.0        0.12963        0.05113291907514451        0        
C2        C        0.03125        0.185185        0.05113291907514451        0        
C3        C        0.0        0.203703        0.05113291907514451        0        
C4        C        0.03125        0.148148        0.05113291907514451        0        
C1        C        0.0        0.24074099999999998        0.05113291907514451        0        
C2        C        0.03125        0.296297        0.05113291907514451        0        
C_FG        C        0.0        0.314815        0.05113291907514451        0.2        
C4        C        0.03125        0.259259        0.05113291907514451        0        
C1        C        0.0        0.351852        0.05113291907514451        0        
C2        C        0.03125        0.407408        0.05113291907514451        0        
C3        C        0.0        0.42592500000000005        0.05113291907514451        0        
C4        C        0.03125        0.37037        0.05113291907514451        0        
C1        C        0.0        0.46296300000000007        0.05113291907514451        0        
C2        C        0.03125        0.518519        0.05113291907514451        0        
C3        C        0.0        0.537037        0.05113291907514451        0        
C4        C        0.03125        0.481481        0.05113291907514451        0        
C_FG        C        0.0        0.574075        0.05113291907514451        0.2        
C2        C        0.03125        0.62963        0.05113291907514451        0        
C3        C        0.0        0.648148        0.05113291907514451        0        
C4        C        0.03125        0.592592        0.05113291907514451        0        
C1        C        0.0625        0.018519        0.05113291907514451        0        
C2        C        0.09375        0.074075        0.05113291907514451        0        
C3        C        0.0625        0.092592        0.05113291907514451        0        
C4        C        0.09375        0.037037        0.05113291907514451        0        
C1        C        0.0625        0.12963        0.05113291907514451        0        
C2        C        0.09375        0.185185        0.05113291907514451        0        
C3        C        0.0625        0.203703        0.05113291907514451        0        
C4        C        0.09375        0.148148        0.05113291907514451        0        
C1        C        0.0625        0.24074099999999998        0.05113291907514451        0        
C2        C        0.09375        0.296297        0.05113291907514451        0        
C3        C        0.0625        0.314815        0.05113291907514451        0        
C4        C        0.09375        0.259259        0.05113291907514451        0        
C1        C        0.0625        0.351852        0.05113291907514451        0        
C2        C        0.09375        0.407408        0.05113291907514451        0        
C3        C        0.0625        0.42592500000000005        0.05113291907514451        0        
C4        C        0.09375        0.37037        0.05113291907514451        0        
C1        C        0.0625        0.46296300000000007        0.05113291907514451        0        
C2        C        0.09375        0.518519        0.05113291907514451        0        
C3        C        0.0625        0.537037        0.05113291907514451        0        
C4        C        0.09375        0.481481        0.05113291907514451        0        
C1        C        0.0625        0.574075        0.05113291907514451        0        
C2        C        0.09375        0.62963        0.05113291907514451        0        
C3        C        0.0625        0.648148        0.05113291907514451        0        
C4        C        0.09375        0.592592        0.05113291907514451        0        
C1        C        0.125        0.018519        0.05113291907514451        0        
C2        C        0.15625        0.074075        0.05113291907514451        0        
C3        C        0.125        0.092592        0.05113291907514451        0        
C4        C        0.15625        0.037037        0.05113291907514451        0        
C1        C        0.125        0.12963        0.05113291907514451        0        
C2        C        0.15625        0.185185        0.05113291907514451        0        
C3        C        0.125        0.203703        0.05113291907514451        0        
C4        C        0.15625        0.148148        0.05113291907514451        0        
C1        C        0.125        0.24074099999999998        0.05113291907514451        0        
C2        C        0.15625        0.296297        0.05113291907514451        0        
C3        C        0.125        0.314815        0.05113291907514451        0        
C4        C        0.15625        0.259259        0.05113291907514451        0        
C1        C        0.125        0.351852        0.05113291907514451        0        
C2        C        0.15625        0.407408        0.05113291907514451        0        
C3        C        0.125        0.42592500000000005        0.05113291907514451        0        
C4        C        0.15625        0.37037        0.05113291907514451        0        
C1        C        0.125        0.46296300000000007        0.05113291907514451        0        
C2        C        0.15625        0.518519        0.05113291907514451        0        
C3        C        0.125        0.537037        0.05113291907514451        0        
C4        C        0.15625        0.481481        0.05113291907514451        0        
C1        C        0.125        0.574075        0.05113291907514451        0        
C2        C        0.15625        0.62963        0.05113291907514451        0        
C3        C        0.125        0.648148        0.05113291907514451        0        
C4        C        0.15625        0.592592        0.05113291907514451        0        
C1        C        0.1875        0.018519        0.05113291907514451        0        
C2        C        0.21875        0.074075        0.05113291907514451        0        
C3        C        0.1875        0.092592        0.05113291907514451        0        
C4        C        0.21875        0.037037        0.05113291907514451        0        
C1        C        0.1875        0.12963        0.05113291907514451        0        
C2        C        0.21875        0.185185        0.05113291907514451        0        
C3        C        0.1875        0.203703        0.05113291907514451        0        
C4        C        0.21875        0.148148        0.05113291907514451        0        
C1        C        0.1875        0.24074099999999998        0.05113291907514451        0        
C2        C        0.21875        0.296297        0.05113291907514451        0        
C3        C        0.1875        0.314815        0.05113291907514451        0        
C4        C        0.21875        0.259259        0.05113291907514451        0        
C1        C        0.1875        0.351852        0.05113291907514451        0        
C2        C        0.21875        0.407408        0.05113291907514451        0        
C3        C        0.1875        0.42592500000000005        0.05113291907514451        0        
C4        C        0.21875        0.37037        0.05113291907514451        0        
C1        C        0.1875        0.46296300000000007        0.05113291907514451        0        
C2        C        0.21875        0.518519        0.05113291907514451        0        
C3        C        0.1875        0.537037        0.05113291907514451        0        
C4        C        0.21875        0.481481        0.05113291907514451        0        
C1        C        0.1875        0.574075        0.05113291907514451        0        
C2        C        0.21875        0.62963        0.05113291907514451        0        
C3        C        0.1875        0.648148        0.05113291907514451        0        
C4        C        0.21875        0.592592        0.05113291907514451        0        
C_FG        C        0.25        0.018519        0.05113291907514451        0.2        
C2        C        0.28125        0.074075        0.05113291907514451        0        
C3        C        0.25        0.092592        0.05113291907514451        0        
C4        C        0.28125        0.037037        0.05113291907514451        0        
C1        C        0.25        0.12963        0.05113291907514451        0        
C2        C        0.28125        0.185185        0.05113291907514451        0        
C3        C        0.25        0.203703        0.05113291907514451        0        
C4        C        0.28125        0.148148        0.05113291907514451        0        
C1        C        0.25        0.24074099999999998        0.05113291907514451        0        
C2        C        0.28125        0.296297        0.05113291907514451        0        
C_FG        C        0.25        0.314815        0.05113291907514451        0.2        
C4        C        0.28125        0.259259        0.05113291907514451        0        
C1        C        0.25        0.351852        0.05113291907514451        0        
C2        C        0.28125        0.407408        0.05113291907514451        0        
C3        C        0.25        0.42592500000000005        0.05113291907514451        0        
C4        C        0.28125        0.37037        0.05113291907514451        0        
C1        C        0.25        0.46296300000000007        0.05113291907514451        0        
C2        C        0.28125        0.518519        0.05113291907514451        0        
C3        C        0.25        0.537037        0.05113291907514451        0        
C4        C        0.28125        0.481481        0.05113291907514451        0        
C_FG        C        0.25        0.574075        0.05113291907514451        0.2        
C2        C        0.28125        0.62963        0.05113291907514451        0        
C3        C        0.25        0.648148        0.05113291907514451        0        
C4        C        0.28125        0.592592        0.05113291907514451        0        
C1        C        0.3125        0.018519        0.05113291907514451        0        
C2        C        0.34375        0.074075        0.05113291907514451        0        
C3        C        0.3125        0.092592        0.05113291907514451        0        
C4        C        0.34375        0.037037        0.05113291907514451        0        
C1        C        0.3125        0.12963        0.05113291907514451        0        
C2        C        0.34375        0.185185        0.05113291907514451        0        
C3        C        0.3125        0.203703        0.05113291907514451        0        
C4        C        0.34375        0.148148        0.05113291907514451        0        
C1        C        0.3125        0.24074099999999998        0.05113291907514451        0        
C2        C        0.34375        0.296297        0.05113291907514451        0        
C3        C        0.3125        0.314815        0.05113291907514451        0        
C4        C        0.34375        0.259259        0.05113291907514451        0        
C1        C        0.3125        0.351852        0.05113291907514451        0        
C2        C        0.34375        0.407408        0.05113291907514451        0        
C3        C        0.3125        0.42592500000000005        0.05113291907514451        0        
C4        C        0.34375        0.37037        0.05113291907514451        0        
C1        C        0.3125        0.46296300000000007        0.05113291907514451        0        
C2        C        0.34375        0.518519        0.05113291907514451        0        
C3        C        0.3125        0.537037        0.05113291907514451        0        
C4        C        0.34375        0.481481        0.05113291907514451        0        
C1        C        0.3125        0.574075        0.05113291907514451        0        
C2        C        0.34375        0.62963        0.05113291907514451        0        
C3        C        0.3125        0.648148        0.05113291907514451        0        
C4        C        0.34375        0.592592        0.05113291907514451        0        
C1        C        0.375        0.018519        0.05113291907514451        0        
C2        C        0.40625        0.074075        0.05113291907514451        0        
C3        C        0.375        0.092592        0.05113291907514451        0        
C4        C        0.40625        0.037037        0.05113291907514451        0        
C1        C        0.375        0.12963        0.05113291907514451        0        
C2        C        0.40625        0.185185        0.05113291907514451        0        
C3        C        0.375        0.203703        0.05113291907514451        0        
C4        C        0.40625        0.148148        0.05113291907514451        0        
C1        C        0.375        0.24074099999999998        0.05113291907514451        0        
C2        C        0.40625        0.296297        0.05113291907514451        0        
C3        C        0.375        0.314815        0.05113291907514451        0        
C4        C        0.40625        0.259259        0.05113291907514451        0        
C1        C        0.375        0.351852        0.05113291907514451        0        
C2        C        0.40625        0.407408        0.05113291907514451        0        
C3        C        0.375        0.42592500000000005        0.05113291907514451        0        
C4        C        0.40625        0.37037        0.05113291907514451        0        
C1        C        0.375        0.46296300000000007        0.05113291907514451        0        
C2        C        0.40625        0.518519        0.05113291907514451        0        
C3        C        0.375        0.537037        0.05113291907514451        0        
C4        C        0.40625        0.481481        0.05113291907514451        0        
C1        C        0.375        0.574075        0.05113291907514451        0        
C2        C        0.40625        0.62963        0.05113291907514451        0        
C3        C        0.375        0.648148        0.05113291907514451        0        
C4        C        0.40625        0.592592        0.05113291907514451        0        
C1        C        0.4375        0.018519        0.05113291907514451        0        
C2        C        0.46875        0.074075        0.05113291907514451        0        
C3        C        0.4375        0.092592        0.05113291907514451        0        
C4        C        0.46875        0.037037        0.05113291907514451        0        
C1        C        0.4375        0.12963        0.05113291907514451        0        
C2        C        0.46875        0.185185        0.05113291907514451        0        
C3        C        0.4375        0.203703        0.05113291907514451        0        
C4        C        0.46875        0.148148        0.05113291907514451        0        
C1        C        0.4375        0.24074099999999998        0.05113291907514451        0        
C2        C        0.46875        0.296297        0.05113291907514451        0        
C3        C        0.4375        0.314815        0.05113291907514451        0        
C4        C        0.46875        0.259259        0.05113291907514451        0        
C1        C        0.4375        0.351852        0.05113291907514451        0        
C2        C        0.46875        0.407408        0.05113291907514451        0        
C3        C        0.4375        0.42592500000000005        0.05113291907514451        0        
C4        C        0.46875        0.37037        0.05113291907514451        0        
C1        C        0.4375        0.46296300000000007        0.05113291907514451        0        
C2        C        0.46875        0.518519        0.05113291907514451        0        
C3        C        0.4375        0.537037        0.05113291907514451        0        
C4        C        0.46875        0.481481        0.05113291907514451        0        
C1        C        0.4375        0.574075        0.05113291907514451        0        
C2        C        0.46875        0.62963        0.05113291907514451        0        
C3        C        0.4375        0.648148        0.05113291907514451        0        
C4        C        0.46875        0.592592        0.05113291907514451        0        
C_FG        C        0.5        0.018519        0.05113291907514451        0.2        
C2        C        0.53125        0.074075        0.05113291907514451        0        
C3        C        0.5        0.092592        0.05113291907514451        0        
C4        C        0.53125        0.037037        0.05113291907514451        0        
C1        C        0.5        0.12963        0.05113291907514451        0        
C2        C        0.53125        0.185185        0.05113291907514451        0        
C3        C        0.5        0.203703        0.05113291907514451        0        
C4        C        0.53125        0.148148        0.05113291907514451        0        
C1        C        0.5        0.24074099999999998        0.05113291907514451        0        
C2        C        0.53125        0.296297        0.05113291907514451        0        
C_FG        C        0.5        0.314815        0.05113291907514451        0.2        
C4        C        0.53125        0.259259        0.05113291907514451        0        
C1        C        0.5        0.351852        0.05113291907514451        0        
C2        C        0.53125        0.407408        0.05113291907514451        0        
C3        C        0.5        0.42592500000000005        0.05113291907514451        0        
C4        C        0.53125        0.37037        0.05113291907514451        0        
C1        C        0.5        0.46296300000000007        0.05113291907514451        0        
C2        C        0.53125        0.518519        0.05113291907514451        0        
C3        C        0.5        0.537037        0.05113291907514451        0        
C4        C        0.53125        0.481481        0.05113291907514451        0        
C_FG        C        0.5        0.574075        0.05113291907514451        0.2        
C2        C        0.53125        0.62963        0.05113291907514451        0        
C3        C        0.5        0.648148        0.05113291907514451        0        
C4        C        0.53125        0.592592        0.05113291907514451        0        
C1        C        0.5625        0.018519        0.05113291907514451        0        
C2        C        0.59375        0.074075        0.05113291907514451        0        
C3        C        0.5625        0.092592        0.05113291907514451        0        
C4        C        0.59375        0.037037        0.05113291907514451        0        
C1        C        0.5625        0.12963        0.05113291907514451        0        
C2        C        0.59375        0.185185        0.05113291907514451        0        
C3        C        0.5625        0.203703        0.05113291907514451        0        
C4        C        0.59375        0.148148        0.05113291907514451        0        
C1        C        0.5625        0.24074099999999998        0.05113291907514451        0        
C2        C        0.59375        0.296297        0.05113291907514451        0        
C3        C        0.5625        0.314815        0.05113291907514451        0        
C4        C        0.59375        0.259259        0.05113291907514451        0        
C1        C        0.5625        0.351852        0.05113291907514451        0        
C2        C        0.59375        0.407408        0.05113291907514451        0        
C3        C        0.5625        0.42592500000000005        0.05113291907514451        0        
C4        C        0.59375        0.37037        0.05113291907514451        0        
C1        C        0.5625        0.46296300000000007        0.05113291907514451        0        
C2        C        0.59375        0.518519        0.05113291907514451        0        
C3        C        0.5625        0.537037        0.05113291907514451        0        
C4        C        0.59375        0.481481        0.05113291907514451        0        
C1        C        0.5625        0.574075        0.05113291907514451        0        
C2        C        0.59375        0.62963        0.05113291907514451        0        
C3        C        0.5625        0.648148        0.05113291907514451        0        
C4        C        0.59375        0.592592        0.05113291907514451        0        
C1        C        0.625        0.018519        0.05113291907514451        0        
C2        C        0.65625        0.074075        0.05113291907514451        0        
C3        C        0.625        0.092592        0.05113291907514451        0        
C4        C        0.65625        0.037037        0.05113291907514451        0        
C1        C        0.625        0.12963        0.05113291907514451        0        
C2        C        0.65625        0.185185        0.05113291907514451        0        
C3        C        0.625        0.203703        0.05113291907514451        0        
C4        C        0.65625        0.148148        0.05113291907514451        0        
C1        C        0.625        0.24074099999999998        0.05113291907514451        0        
C2        C        0.65625        0.296297        0.05113291907514451        0        
C3        C        0.625        0.314815        0.05113291907514451        0        
C4        C        0.65625        0.259259        0.05113291907514451        0        
C1        C        0.625        0.351852        0.05113291907514451        0        
C2        C        0.65625        0.407408        0.05113291907514451        0        
C3        C        0.625        0.42592500000000005        0.05113291907514451        0        
C4        C        0.65625        0.37037        0.05113291907514451        0        
C1        C        0.625        0.46296300000000007        0.05113291907514451        0        
C2        C        0.65625        0.518519        0.05113291907514451        0        
C3        C        0.625        0.537037        0.05113291907514451        0        
C4        C        0.65625        0.481481        0.05113291907514451        0        
C1        C        0.625        0.574075        0.05113291907514451        0        
C2        C        0.65625        0.62963        0.05113291907514451        0        
C3        C        0.625        0.648148        0.05113291907514451        0        
C4        C        0.65625        0.592592        0.05113291907514451        0        
C1        C        0.6875        0.018519        0.05113291907514451        0        
C2        C        0.71875        0.074075        0.05113291907514451        0        
C3        C        0.6875        0.092592        0.05113291907514451        0        
C4        C        0.71875        0.037037        0.05113291907514451        0        
C1        C        0.6875        0.12963        0.05113291907514451        0        
C2        C        0.71875        0.185185        0.05113291907514451        0        
C3        C        0.6875        0.203703        0.05113291907514451        0        
C4        C        0.71875        0.148148        0.05113291907514451        0        
C1        C        0.6875        0.24074099999999998        0.05113291907514451        0        
C2        C        0.71875        0.296297        0.05113291907514451        0        
C3        C        0.6875        0.314815        0.05113291907514451        0        
C4        C        0.71875        0.259259        0.05113291907514451        0        
C1        C        0.6875        0.351852        0.05113291907514451        0        
C2        C        0.71875        0.407408        0.05113291907514451        0        
C3        C        0.6875        0.42592500000000005        0.05113291907514451        0        
C4        C        0.71875        0.37037        0.05113291907514451        0        
C1        C        0.6875        0.46296300000000007        0.05113291907514451        0        
C2        C        0.71875        0.518519        0.05113291907514451        0        
C3        C        0.6875        0.537037        0.05113291907514451        0        
C4        C        0.71875        0.481481        0.05113291907514451        0        
C1        C        0.6875        0.574075        0.05113291907514451        0        
C2        C        0.71875        0.62963        0.05113291907514451        0        
C3        C        0.6875        0.648148        0.05113291907514451        0        
C4        C        0.71875        0.592592        0.05113291907514451        0        
C_FG        C        0.75        0.018519        0.05113291907514451        0.2        
C2        C        0.78125        0.074075        0.05113291907514451        0        
C3        C        0.75        0.092592        0.05113291907514451        0        
C4        C        0.78125        0.037037        0.05113291907514451        0        
C1        C        0.75        0.12963        0.05113291907514451        0        
C2        C        0.78125        0.185185        0.05113291907514451        0        
C3        C        0.75        0.203703        0.05113291907514451        0        
C4        C        0.78125        0.148148        0.05113291907514451        0        
C1        C        0.75        0.24074099999999998        0.05113291907514451        0        
C2        C        0.78125        0.296297        0.05113291907514451        0        
C_FG        C        0.75        0.314815        0.05113291907514451        0.2        
C4        C        0.78125        0.259259        0.05113291907514451        0        
C1        C        0.75        0.351852        0.05113291907514451        0        
C2        C        0.78125        0.407408        0.05113291907514451        0        
C3        C        0.75        0.42592500000000005        0.05113291907514451        0        
C4        C        0.78125        0.37037        0.05113291907514451        0        
C1        C        0.75        0.46296300000000007        0.05113291907514451        0        
C2        C        0.78125        0.518519        0.05113291907514451        0        
C3        C        0.75        0.537037        0.05113291907514451        0        
C4        C        0.78125        0.481481        0.05113291907514451        0        
C_FG        C        0.75        0.574075        0.05113291907514451        0.2        
C2        C        0.78125        0.62963        0.05113291907514451        0        
C3        C        0.75        0.648148        0.05113291907514451        0        
C4        C        0.78125        0.592592        0.05113291907514451        0        
C1        C        0.8125        0.018519        0.05113291907514451        0        
C2        C        0.84375        0.074075        0.05113291907514451        0        
C3        C        0.8125        0.092592        0.05113291907514451        0        
C4        C        0.84375        0.037037        0.05113291907514451        0        
C1        C        0.8125        0.12963        0.05113291907514451        0        
C2        C        0.84375        0.185185        0.05113291907514451        0        
C3        C        0.8125        0.203703        0.05113291907514451        0        
C4        C        0.84375        0.148148        0.05113291907514451        0        
C1        C        0.8125        0.24074099999999998        0.05113291907514451        0        
C2        C        0.84375        0.296297        0.05113291907514451        0        
C3        C        0.8125        0.314815        0.05113291907514451        0        
C4        C        0.84375        0.259259        0.05113291907514451        0        
C1        C        0.8125        0.351852        0.05113291907514451        0        
C2        C        0.84375        0.407408        0.05113291907514451        0        
C3        C        0.8125        0.42592500000000005        0.05113291907514451        0        
C4        C        0.84375        0.37037        0.05113291907514451        0        
C1        C        0.8125        0.46296300000000007        0.05113291907514451        0        
C2        C        0.84375        0.518519        0.05113291907514451        0        
C3        C        0.8125        0.537037        0.05113291907514451        0        
C4        C        0.84375        0.481481        0.05113291907514451        0        
C1        C        0.8125        0.574075        0.05113291907514451        0        
C2        C        0.84375        0.62963        0.05113291907514451        0        
C3        C        0.8125        0.648148        0.05113291907514451        0        
C4        C        0.84375        0.592592        0.05113291907514451        0        
C1        C        0.875        0.018519        0.05113291907514451        0        
C2        C        0.9062500000000001        0.074075        0.05113291907514451        0        
C3        C        0.875        0.092592        0.05113291907514451        0        
C4        C        0.9062500000000001        0.037037        0.05113291907514451        0        
C1        C        0.875        0.12963        0.05113291907514451        0        
C2        C        0.9062500000000001        0.185185        0.05113291907514451        0        
C3        C        0.875        0.203703        0.05113291907514451        0        
C4        C        0.9062500000000001        0.148148        0.05113291907514451        0        
C1        C        0.875        0.24074099999999998        0.05113291907514451        0        
C2        C        0.9062500000000001        0.296297        0.05113291907514451        0        
C3        C        0.875        0.314815        0.05113291907514451        0        
C4        C        0.9062500000000001        0.259259        0.05113291907514451        0        
C1        C        0.875        0.351852        0.05113291907514451        0        
C2        C        0.9062500000000001        0.407408        0.05113291907514451        0        
C3        C        0.875        0.42592500000000005        0.05113291907514451        0        
C4        C        0.9062500000000001        0.37037        0.05113291907514451        0        
C1        C        0.875        0.46296300000000007        0.05113291907514451        0        
C2        C        0.9062500000000001        0.518519        0.05113291907514451        0        
C3        C        0.875        0.537037        0.05113291907514451        0        
C4        C        0.9062500000000001        0.481481        0.05113291907514451        0        
C1        C        0.875        0.574075        0.05113291907514451        0        
C2        C        0.9062500000000001        0.62963        0.05113291907514451        0        
C3        C        0.875        0.648148        0.05113291907514451        0        
C4        C        0.9062500000000001        0.592592        0.05113291907514451        0        
C1        C        0.9375        0.018519        0.05113291907514451        0        
C2        C        0.9687500000000001        0.074075        0.05113291907514451        0        
C3        C        0.9375        0.092592        0.05113291907514451        0        
C4        C        0.9687500000000001        0.037037        0.05113291907514451        0        
C1        C        0.9375        0.12963        0.05113291907514451        0        
C2        C        0.9687500000000001        0.185185        0.05113291907514451        0        
C3        C        0.9375        0.203703        0.05113291907514451        0        
C4        C        0.9687500000000001        0.148148        0.05113291907514451        0        
C1        C        0.9375        0.24074099999999998        0.05113291907514451        0        
C2        C        0.9687500000000001        0.296297        0.05113291907514451        0        
C3        C        0.9375        0.314815        0.05113291907514451        0        
C4        C        0.9687500000000001        0.259259        0.05113291907514451        0        
C1        C        0.9375        0.351852        0.05113291907514451        0        
C2        C        0.9687500000000001        0.407408        0.05113291907514451        0        
C3        C        0.9375        0.42592500000000005        0.05113291907514451        0        
C4        C        0.9687500000000001        0.37037        0.05113291907514451        0        
C1        C        0.9375        0.46296300000000007        0.05113291907514451        0        
C2        C        0.9687500000000001        0.518519        0.05113291907514451        0        
C3        C        0.9375        0.537037        0.05113291907514451        0        
C4        C        0.9687500000000001        0.481481        0.05113291907514451        0        
C1        C        0.9375        0.574075        0.05113291907514451        0        
C2        C        0.9687500000000001        0.62963        0.05113291907514451        0        
C3        C        0.9375        0.648148        0.05113291907514451        0        
C4        C        0.9687500000000001        0.592592        0.05113291907514451        0        
C1        C        0.0        0.685186        0.05113291907514451        0        
C1        C        0.0625        0.685186        0.05113291907514451        0        
C1        C        0.125        0.685186        0.05113291907514451        0        
C1        C        0.1875        0.685186        0.05113291907514451        0        
C1        C        0.25        0.685186        0.05113291907514451        0        
C1        C        0.3125        0.685186        0.05113291907514451        0        
C1        C        0.375        0.685186        0.05113291907514451        0        
C1        C        0.4375        0.685186        0.05113291907514451        0        
C1        C        0.5        0.685186        0.05113291907514451        0        
C1        C        0.5625        0.685186        0.05113291907514451        0        
C1        C        0.625        0.685186        0.05113291907514451        0        
C1        C        0.6875        0.685186        0.05113291907514451        0        
C1        C        0.75        0.685186        0.05113291907514451        0        
C1        C        0.8125        0.685186        0.05113291907514451        0        
C1        C        0.875        0.685186        0.05113291907514451        0        
C1        C        0.9375        0.685186        0.05113291907514451        0        
C2        C        0.03125        0.740741        0.05113291907514451        0        
C2        C        0.09375        0.740741        0.05113291907514451        0        
C2        C        0.15625        0.740741        0.05113291907514451        0        
C2        C        0.21875        0.740741        0.05113291907514451        0        
C2        C        0.28125        0.740741        0.05113291907514451        0        
C2        C        0.34375        0.740741        0.05113291907514451        0        
C2        C        0.40625        0.740741        0.05113291907514451        0        
C2        C        0.46875        0.740741        0.05113291907514451        0        
C2        C        0.53125        0.740741        0.05113291907514451        0        
C2        C        0.59375        0.740741        0.05113291907514451        0        
C2        C        0.65625        0.740741        0.05113291907514451        0        
C2        C        0.71875        0.740741        0.05113291907514451        0        
C2        C        0.78125        0.740741        0.05113291907514451        0        
C2        C        0.84375        0.740741        0.05113291907514451        0        
C2        C        0.9062500000000001        0.740741        0.05113291907514451        0        
C2        C        0.9687500000000001        0.740741        0.05113291907514451        0        
C3        C        0.0        0.759259        0.05113291907514451        0        
C3        C        0.0625        0.759259        0.05113291907514451        0        
C3        C        0.125        0.759259        0.05113291907514451        0        
C3        C        0.1875        0.759259        0.05113291907514451        0        
C3        C        0.25        0.759259        0.05113291907514451        0        
C3        C        0.3125        0.759259        0.05113291907514451        0        
C3        C        0.375        0.759259        0.05113291907514451        0        
C3        C        0.4375        0.759259        0.05113291907514451        0        
C3        C        0.5        0.759259        0.05113291907514451        0        
C3        C        0.5625        0.759259        0.05113291907514451        0        
C3        C        0.625        0.759259        0.05113291907514451        0        
C3        C        0.6875        0.759259        0.05113291907514451        0        
C3        C        0.75        0.759259        0.05113291907514451        0        
C3        C        0.8125        0.759259        0.05113291907514451        0        
C3        C        0.875        0.759259        0.05113291907514451        0        
C3        C        0.9375        0.759259        0.05113291907514451        0        
C4        C        0.03125        0.703703        0.05113291907514451        0        
C4        C        0.09375        0.703703        0.05113291907514451        0        
C4        C        0.15625        0.703703        0.05113291907514451        0        
C4        C        0.21875        0.703703        0.05113291907514451        0        
C4        C        0.28125        0.703703        0.05113291907514451        0        
C4        C        0.34375        0.703703        0.05113291907514451        0        
C4        C        0.40625        0.703703        0.05113291907514451        0        
C4        C        0.46875        0.703703        0.05113291907514451        0        
C4        C        0.53125        0.703703        0.05113291907514451        0        
C4        C        0.59375        0.703703        0.05113291907514451        0        
C4        C        0.65625        0.703703        0.05113291907514451        0        
C4        C        0.71875        0.703703        0.05113291907514451        0        
C4        C        0.78125        0.703703        0.05113291907514451        0        
C4        C        0.84375        0.703703        0.05113291907514451        0        
C4        C        0.9062500000000001        0.703703        0.05113291907514451        0        
C4        C        0.9687500000000001        0.703703        0.05113291907514451        0        
C1        C        0.0        0.796297        0.05113291907514451        0        
C1        C        0.0625        0.796297        0.05113291907514451        0        
C1        C        0.125        0.796297        0.05113291907514451        0        
C1        C        0.1875        0.796297        0.05113291907514451        0        
C1        C        0.25        0.796297        0.05113291907514451        0        
C1        C        0.3125        0.796297        0.05113291907514451        0        
C1        C        0.375        0.796297        0.05113291907514451        0        
C1        C        0.4375        0.796297        0.05113291907514451        0        
C1        C        0.5        0.796297        0.05113291907514451        0        
C1        C        0.5625        0.796297        0.05113291907514451        0        
C1        C        0.625        0.796297        0.05113291907514451        0        
C1        C        0.6875        0.796297        0.05113291907514451        0        
C1        C        0.75        0.796297        0.05113291907514451        0        
C1        C        0.8125        0.796297        0.05113291907514451        0        
C1        C        0.875        0.796297        0.05113291907514451        0        
C1        C        0.9375        0.796297        0.05113291907514451        0        
C2        C        0.03125        0.851852        0.05113291907514451        0        
C2        C        0.09375        0.851852        0.05113291907514451        0        
C2        C        0.15625        0.851852        0.05113291907514451        0        
C2        C        0.21875        0.851852        0.05113291907514451        0        
C2        C        0.28125        0.851852        0.05113291907514451        0        
C2        C        0.34375        0.851852        0.05113291907514451        0        
C2        C        0.40625        0.851852        0.05113291907514451        0        
C2        C        0.46875        0.851852        0.05113291907514451        0        
C2        C        0.53125        0.851852        0.05113291907514451        0        
C2        C        0.59375        0.851852        0.05113291907514451        0        
C2        C        0.65625        0.851852        0.05113291907514451        0        
C2        C        0.71875        0.851852        0.05113291907514451        0        
C2        C        0.78125        0.851852        0.05113291907514451        0        
C2        C        0.84375        0.851852        0.05113291907514451        0        
C2        C        0.9062500000000001        0.851852        0.05113291907514451        0        
C2        C        0.9687500000000001        0.851852        0.05113291907514451        0        
C_FG        C        0.0        0.87037        0.05113291907514451        0.2        
C3        C        0.0625        0.87037        0.05113291907514451        0        
C3        C        0.125        0.87037        0.05113291907514451        0        
C3        C        0.1875        0.87037        0.05113291907514451        0        
C_FG        C        0.25        0.87037        0.05113291907514451        0.2        
C3        C        0.3125        0.87037        0.05113291907514451        0        
C3        C        0.375        0.87037        0.05113291907514451        0        
C3        C        0.4375        0.87037        0.05113291907514451        0        
C_FG        C        0.5        0.87037        0.05113291907514451        0.2        
C3        C        0.5625        0.87037        0.05113291907514451        0        
C3        C        0.625        0.87037        0.05113291907514451        0        
C3        C        0.6875        0.87037        0.05113291907514451        0        
C_FG        C        0.75        0.87037        0.05113291907514451        0.2        
C3        C        0.8125        0.87037        0.05113291907514451        0        
C3        C        0.875        0.87037        0.05113291907514451        0        
C3        C        0.9375        0.87037        0.05113291907514451        0        
C4        C        0.03125        0.814814        0.05113291907514451        0        
C4        C        0.09375        0.814814        0.05113291907514451        0        
C4        C        0.15625        0.814814        0.05113291907514451        0        
C4        C        0.21875        0.814814        0.05113291907514451        0        
C4        C        0.28125        0.814814        0.05113291907514451        0        
C4        C        0.34375        0.814814        0.05113291907514451        0        
C4        C        0.40625        0.814814        0.05113291907514451        0        
C4        C        0.46875        0.814814        0.05113291907514451        0        
C4        C        0.53125        0.814814        0.05113291907514451        0        
C4        C        0.59375        0.814814        0.05113291907514451        0        
C4        C        0.65625        0.814814        0.05113291907514451        0        
C4        C        0.71875        0.814814        0.05113291907514451        0        
C4        C        0.78125        0.814814        0.05113291907514451        0        
C4        C        0.84375        0.814814        0.05113291907514451        0        
C4        C        0.9062500000000001        0.814814        0.05113291907514451        0        
C4        C        0.9687500000000001        0.814814        0.05113291907514451        0        
C1        C        0.0        0.907408        0.05113291907514451        0        
C1        C        0.0625        0.907408        0.05113291907514451        0        
C1        C        0.125        0.907408        0.05113291907514451        0        
C1        C        0.1875        0.907408        0.05113291907514451        0        
C1        C        0.25        0.907408        0.05113291907514451        0        
C1        C        0.3125        0.907408        0.05113291907514451        0        
C1        C        0.375        0.907408        0.05113291907514451        0        
C1        C        0.4375        0.907408        0.05113291907514451        0        
C1        C        0.5        0.907408        0.05113291907514451        0        
C1        C        0.5625        0.907408        0.05113291907514451        0        
C1        C        0.625        0.907408        0.05113291907514451        0        
C1        C        0.6875        0.907408        0.05113291907514451        0        
C1        C        0.75        0.907408        0.05113291907514451        0        
C1        C        0.8125        0.907408        0.05113291907514451        0        
C1        C        0.875        0.907408        0.05113291907514451        0        
C1        C        0.9375        0.907408        0.05113291907514451        0        
C2        C        0.03125        0.962963        0.05113291907514451        0        
C2        C        0.09375        0.962963        0.05113291907514451        0        
C2        C        0.15625        0.962963        0.05113291907514451        0        
C2        C        0.21875        0.962963        0.05113291907514451        0        
C2        C        0.28125        0.962963        0.05113291907514451        0        
C2        C        0.34375        0.962963        0.05113291907514451        0        
C2        C        0.40625        0.962963        0.05113291907514451        0        
C2        C        0.46875        0.962963        0.05113291907514451        0        
C2        C        0.53125        0.962963        0.05113291907514451        0        
C2        C        0.59375        0.962963        0.05113291907514451        0        
C2        C        0.65625        0.962963        0.05113291907514451        0        
C2        C        0.71875        0.962963        0.05113291907514451        0        
C2        C        0.78125        0.962963        0.05113291907514451        0        
C2        C        0.84375        0.962963        0.05113291907514451        0        
C2        C        0.9062500000000001        0.962963        0.05113291907514451        0        
C2        C        0.9687500000000001        0.962963        0.05113291907514451        0        
C3        C        0.0        0.9814809999999999        0.05113291907514451        0        
C3        C        0.0625        0.9814809999999999        0.05113291907514451        0        
C3        C        0.125        0.9814809999999999        0.05113291907514451        0        
C3        C        0.1875        0.9814809999999999        0.05113291907514451        0        
C3        C        0.25        0.9814809999999999        0.05113291907514451        0        
C3        C        0.3125        0.9814809999999999        0.05113291907514451        0        
C3        C        0.375        0.9814809999999999        0.05113291907514451        0        
C3        C        0.4375        0.9814809999999999        0.05113291907514451        0        
C3        C        0.5        0.9814809999999999        0.05113291907514451        0        
C3        C        0.5625        0.9814809999999999        0.05113291907514451        0        
C3        C        0.625        0.9814809999999999        0.05113291907514451        0        
C3        C        0.6875        0.9814809999999999        0.05113291907514451        0        
C3        C        0.75        0.9814809999999999        0.05113291907514451        0        
C3        C        0.8125        0.9814809999999999        0.05113291907514451        0        
C3        C        0.875        0.9814809999999999        0.05113291907514451        0        
C3        C        0.9375        0.9814809999999999        0.05113291907514451        0        
C4        C        0.03125        0.925925        0.05113291907514451        0        
C4        C        0.09375        0.925925        0.05113291907514451        0        
C4        C        0.15625        0.925925        0.05113291907514451        0        
C4        C        0.21875        0.925925        0.05113291907514451        0        
C4        C        0.28125        0.925925        0.05113291907514451        0        
C4        C        0.34375        0.925925        0.05113291907514451        0        
C4        C        0.40625        0.925925        0.05113291907514451        0        
C4        C        0.46875        0.925925        0.05113291907514451        0        
C4        C        0.53125        0.925925        0.05113291907514451        0        
C4        C        0.59375        0.925925        0.05113291907514451        0        
C4        C        0.65625        0.925925        0.05113291907514451        0        
C4        C        0.71875        0.925925        0.05113291907514451        0        
C4        C        0.78125        0.925925        0.05113291907514451        0        
C4        C        0.84375        0.925925        0.05113291907514451        0        
C4        C        0.9062500000000001        0.925925        0.05113291907514451        0        
C4        C        0.9687500000000001        0.925925        0.05113291907514451        0        
C1        C        0.0        0.018519        0.14795391907514452        0        
C2        C        0.03125        0.074075        0.14795391907514452        0        
C3        C        0.0        0.092592        0.14795391907514452        0        
C4        C        0.03125        0.037037        0.14795391907514452        0        
C1        C        0.0        0.12963        0.14795391907514452        0        
C2        C        0.03125        0.185185        0.14795391907514452        0        
C3        C        0.0        0.203703        0.14795391907514452        0        
C4        C        0.03125        0.148148        0.14795391907514452        0        
C1        C        0.0        0.24074099999999998        0.14795391907514452        0        
C2        C        0.03125        0.296297        0.14795391907514452        0        
C3        C        0.0        0.314815        0.14795391907514452        0        
C4        C        0.03125        0.259259        0.14795391907514452        0        
C1        C        0.0        0.351852        0.14795391907514452        0        
C2        C        0.03125        0.407408        0.14795391907514452        0        
C3        C        0.0        0.42592500000000005        0.14795391907514452        0        
C4        C        0.03125        0.37037        0.14795391907514452        0        
C1        C        0.0        0.46296300000000007        0.14795391907514452        0        
C2        C        0.03125        0.518519        0.14795391907514452        0        
C3        C        0.0        0.537037        0.14795391907514452        0        
C4        C        0.03125        0.481481        0.14795391907514452        0        
C1        C        0.0        0.574075        0.14795391907514452        0        
C2        C        0.03125        0.62963        0.14795391907514452        0        
C3        C        0.0        0.648148        0.14795391907514452        0        
C4        C        0.03125        0.592592        0.14795391907514452        0        
C1        C        0.0625        0.018519        0.14795391907514452        0        
C2        C        0.09375        0.074075        0.14795391907514452        0        
C3        C        0.0625        0.092592        0.14795391907514452        0        
C4        C        0.09375        0.037037        0.14795391907514452        0        
C1        C        0.0625        0.12963        0.14795391907514452        0        
C2        C        0.09375        0.185185        0.14795391907514452        0        
C3        C        0.0625        0.203703        0.14795391907514452        0        
C4        C        0.09375        0.148148        0.14795391907514452        0        
C1        C        0.0625        0.24074099999999998        0.14795391907514452        0        
C2        C        0.09375        0.296297        0.14795391907514452        0        
C3        C        0.0625        0.314815        0.14795391907514452        0        
C4        C        0.09375        0.259259        0.14795391907514452        0        
C1        C        0.0625        0.351852        0.14795391907514452        0        
C2        C        0.09375        0.407408        0.14795391907514452        0        
C3        C        0.0625        0.42592500000000005        0.14795391907514452        0        
C4        C        0.09375        0.37037        0.14795391907514452        0        
C1        C        0.0625        0.46296300000000007        0.14795391907514452        0        
C2        C        0.09375        0.518519        0.14795391907514452        0        
C3        C        0.0625        0.537037        0.14795391907514452        0        
C4        C        0.09375        0.481481        0.14795391907514452        0        
C1        C        0.0625        0.574075        0.14795391907514452        0        
C2        C        0.09375        0.62963        0.14795391907514452        0        
C3        C        0.0625        0.648148        0.14795391907514452        0        
C4        C        0.09375        0.592592        0.14795391907514452        0        
C1        C        0.125        0.018519        0.14795391907514452        0        
C2        C        0.15625        0.074075        0.14795391907514452        0        
C3        C        0.125        0.092592        0.14795391907514452        0        
C4        C        0.15625        0.037037        0.14795391907514452        0        
C1        C        0.125        0.12963        0.14795391907514452        0        
C2        C        0.15625        0.185185        0.14795391907514452        0        
C3        C        0.125        0.203703        0.14795391907514452        0        
C4        C        0.15625        0.148148        0.14795391907514452        0        
C1        C        0.125        0.24074099999999998        0.14795391907514452        0        
C2        C        0.15625        0.296297        0.14795391907514452        0        
C3        C        0.125        0.314815        0.14795391907514452        0        
C4        C        0.15625        0.259259        0.14795391907514452        0        
C1        C        0.125        0.351852        0.14795391907514452        0        
C2        C        0.15625        0.407408        0.14795391907514452        0        
C3        C        0.125        0.42592500000000005        0.14795391907514452        0        
C4        C        0.15625        0.37037        0.14795391907514452        0        
C1        C        0.125        0.46296300000000007        0.14795391907514452        0        
C2        C        0.15625        0.518519        0.14795391907514452        0        
C3        C        0.125        0.537037        0.14795391907514452        0        
C4        C        0.15625        0.481481        0.14795391907514452        0        
C1        C        0.125        0.574075        0.14795391907514452        0        
C2        C        0.15625        0.62963        0.14795391907514452        0        
C3        C        0.125        0.648148        0.14795391907514452        0        
C4        C        0.15625        0.592592        0.14795391907514452        0        
C1        C        0.1875        0.018519        0.14795391907514452        0        
C2        C        0.21875        0.074075        0.14795391907514452        0        
C3        C        0.1875        0.092592        0.14795391907514452        0        
C4        C        0.21875        0.037037        0.14795391907514452        0        
C1        C        0.1875        0.12963        0.14795391907514452        0        
C2        C        0.21875        0.185185        0.14795391907514452        0        
C3        C        0.1875        0.203703        0.14795391907514452        0        
C4        C        0.21875        0.148148        0.14795391907514452        0        
C1        C        0.1875        0.24074099999999998        0.14795391907514452        0        
C2        C        0.21875        0.296297        0.14795391907514452        0        
C3        C        0.1875        0.314815        0.14795391907514452        0        
C4        C        0.21875        0.259259        0.14795391907514452        0        
C1        C        0.1875        0.351852        0.14795391907514452        0        
C2        C        0.21875        0.407408        0.14795391907514452        0        
C3        C        0.1875        0.42592500000000005        0.14795391907514452        0        
C4        C        0.21875        0.37037        0.14795391907514452        0        
C1        C        0.1875        0.46296300000000007        0.14795391907514452        0        
C2        C        0.21875        0.518519        0.14795391907514452        0        
C3        C        0.1875        0.537037        0.14795391907514452        0        
C4        C        0.21875        0.481481        0.14795391907514452        0        
C1        C        0.1875        0.574075        0.14795391907514452        0        
C2        C        0.21875        0.62963        0.14795391907514452        0        
C3        C        0.1875        0.648148        0.14795391907514452        0        
C4        C        0.21875        0.592592        0.14795391907514452        0        
C1        C        0.25        0.018519        0.14795391907514452        0        
C2        C        0.28125        0.074075        0.14795391907514452        0        
C3        C        0.25        0.092592        0.14795391907514452        0        
C4        C        0.28125        0.037037        0.14795391907514452        0        
C1        C        0.25        0.12963        0.14795391907514452        0        
C2        C        0.28125        0.185185        0.14795391907514452        0        
C3        C        0.25        0.203703        0.14795391907514452        0        
C4        C        0.28125        0.148148        0.14795391907514452        0        
C1        C        0.25        0.24074099999999998        0.14795391907514452        0        
C2        C        0.28125        0.296297        0.14795391907514452        0        
C3        C        0.25        0.314815        0.14795391907514452        0        
C4        C        0.28125        0.259259        0.14795391907514452        0        
C1        C        0.25        0.351852        0.14795391907514452        0        
C2        C        0.28125        0.407408        0.14795391907514452        0        
C3        C        0.25        0.42592500000000005        0.14795391907514452        0        
C4        C        0.28125        0.37037        0.14795391907514452        0        
C1        C        0.25        0.46296300000000007        0.14795391907514452        0        
C2        C        0.28125        0.518519        0.14795391907514452        0        
C3        C        0.25        0.537037        0.14795391907514452        0        
C4        C        0.28125        0.481481        0.14795391907514452        0        
C1        C        0.25        0.574075        0.14795391907514452        0        
C2        C        0.28125        0.62963        0.14795391907514452        0        
C3        C        0.25        0.648148        0.14795391907514452        0        
C4        C        0.28125        0.592592        0.14795391907514452        0        
C1        C        0.3125        0.018519        0.14795391907514452        0        
C2        C        0.34375        0.074075        0.14795391907514452        0        
C3        C        0.3125        0.092592        0.14795391907514452        0        
C4        C        0.34375        0.037037        0.14795391907514452        0        
C1        C        0.3125        0.12963        0.14795391907514452        0        
C2        C        0.34375        0.185185        0.14795391907514452        0        
C3        C        0.3125        0.203703        0.14795391907514452        0        
C4        C        0.34375        0.148148        0.14795391907514452        0        
C1        C        0.3125        0.24074099999999998        0.14795391907514452        0        
C2        C        0.34375        0.296297        0.14795391907514452        0        
C3        C        0.3125        0.314815        0.14795391907514452        0        
C4        C        0.34375        0.259259        0.14795391907514452        0        
C1        C        0.3125        0.351852        0.14795391907514452        0        
C2        C        0.34375        0.407408        0.14795391907514452        0        
C3        C        0.3125        0.42592500000000005        0.14795391907514452        0        
C4        C        0.34375        0.37037        0.14795391907514452        0        
C1        C        0.3125        0.46296300000000007        0.14795391907514452        0        
C2        C        0.34375        0.518519        0.14795391907514452        0        
C3        C        0.3125        0.537037        0.14795391907514452        0        
C4        C        0.34375        0.481481        0.14795391907514452        0        
C1        C        0.3125        0.574075        0.14795391907514452        0        
C2        C        0.34375        0.62963        0.14795391907514452        0        
C3        C        0.3125        0.648148        0.14795391907514452        0        
C4        C        0.34375        0.592592        0.14795391907514452        0        
C1        C        0.375        0.018519        0.14795391907514452        0        
C2        C        0.40625        0.074075        0.14795391907514452        0        
C3        C        0.375        0.092592        0.14795391907514452        0        
C4        C        0.40625        0.037037        0.14795391907514452        0        
C1        C        0.375        0.12963        0.14795391907514452        0        
C2        C        0.40625        0.185185        0.14795391907514452        0        
C3        C        0.375        0.203703        0.14795391907514452        0        
C4        C        0.40625        0.148148        0.14795391907514452        0        
C1        C        0.375        0.24074099999999998        0.14795391907514452        0        
C2        C        0.40625        0.296297        0.14795391907514452        0        
C3        C        0.375        0.314815        0.14795391907514452        0        
C4        C        0.40625        0.259259        0.14795391907514452        0        
C1        C        0.375        0.351852        0.14795391907514452        0        
C2        C        0.40625        0.407408        0.14795391907514452        0        
C3        C        0.375        0.42592500000000005        0.14795391907514452        0        
C4        C        0.40625        0.37037        0.14795391907514452        0        
C1        C        0.375        0.46296300000000007        0.14795391907514452        0        
C2        C        0.40625        0.518519        0.14795391907514452        0        
C3        C        0.375        0.537037        0.14795391907514452        0        
C4        C        0.40625        0.481481        0.14795391907514452        0        
C1        C        0.375        0.574075        0.14795391907514452        0        
C2        C        0.40625        0.62963        0.14795391907514452        0        
C3        C        0.375        0.648148        0.14795391907514452        0        
C4        C        0.40625        0.592592        0.14795391907514452        0        
C1        C        0.4375        0.018519        0.14795391907514452        0        
C2        C        0.46875        0.074075        0.14795391907514452        0        
C3        C        0.4375        0.092592        0.14795391907514452        0        
C4        C        0.46875        0.037037        0.14795391907514452        0        
C1        C        0.4375        0.12963        0.14795391907514452        0        
C2        C        0.46875        0.185185        0.14795391907514452        0        
C3        C        0.4375        0.203703        0.14795391907514452        0        
C4        C        0.46875        0.148148        0.14795391907514452        0        
C1        C        0.4375        0.24074099999999998        0.14795391907514452        0        
C2        C        0.46875        0.296297        0.14795391907514452        0        
C3        C        0.4375        0.314815        0.14795391907514452        0        
C4        C        0.46875        0.259259        0.14795391907514452        0        
C1        C        0.4375        0.351852        0.14795391907514452        0        
C2        C        0.46875        0.407408        0.14795391907514452        0        
C3        C        0.4375        0.42592500000000005        0.14795391907514452        0        
C4        C        0.46875        0.37037        0.14795391907514452        0        
C1        C        0.4375        0.46296300000000007        0.14795391907514452        0        
C2        C        0.46875        0.518519        0.14795391907514452        0        
C3        C        0.4375        0.537037        0.14795391907514452        0        
C4        C        0.46875        0.481481        0.14795391907514452        0        
C1        C        0.4375        0.574075        0.14795391907514452        0        
C2        C        0.46875        0.62963        0.14795391907514452        0        
C3        C        0.4375        0.648148        0.14795391907514452        0        
C4        C        0.46875        0.592592        0.14795391907514452        0        
C1        C        0.5        0.018519        0.14795391907514452        0        
C2        C        0.53125        0.074075        0.14795391907514452        0        
C3        C        0.5        0.092592        0.14795391907514452        0        
C4        C        0.53125        0.037037        0.14795391907514452        0        
C1        C        0.5        0.12963        0.14795391907514452        0        
C2        C        0.53125        0.185185        0.14795391907514452        0        
C3        C        0.5        0.203703        0.14795391907514452        0        
C4        C        0.53125        0.148148        0.14795391907514452        0        
C1        C        0.5        0.24074099999999998        0.14795391907514452        0        
C2        C        0.53125        0.296297        0.14795391907514452        0        
C3        C        0.5        0.314815        0.14795391907514452        0        
C4        C        0.53125        0.259259        0.14795391907514452        0        
C1        C        0.5        0.351852        0.14795391907514452        0        
C2        C        0.53125        0.407408        0.14795391907514452        0        
C3        C        0.5        0.42592500000000005        0.14795391907514452        0        
C4        C        0.53125        0.37037        0.14795391907514452        0        
C1        C        0.5        0.46296300000000007        0.14795391907514452        0        
C2        C        0.53125        0.518519        0.14795391907514452        0        
C3        C        0.5        0.537037        0.14795391907514452        0        
C4        C        0.53125        0.481481        0.14795391907514452        0        
C1        C        0.5        0.574075        0.14795391907514452        0        
C2        C        0.53125        0.62963        0.14795391907514452        0        
C3        C        0.5        0.648148        0.14795391907514452        0        
C4        C        0.53125        0.592592        0.14795391907514452        0        
C1        C        0.5625        0.018519        0.14795391907514452        0        
C2        C        0.59375        0.074075        0.14795391907514452        0        
C3        C        0.5625        0.092592        0.14795391907514452        0        
C4        C        0.59375        0.037037        0.14795391907514452        0        
C1        C        0.5625        0.12963        0.14795391907514452        0        
C2        C        0.59375        0.185185        0.14795391907514452        0        
C3        C        0.5625        0.203703        0.14795391907514452        0        
C4        C        0.59375        0.148148        0.14795391907514452        0        
C1        C        0.5625        0.24074099999999998        0.14795391907514452        0        
C2        C        0.59375        0.296297        0.14795391907514452        0        
C3        C        0.5625        0.314815        0.14795391907514452        0        
C4        C        0.59375        0.259259        0.14795391907514452        0        
C1        C        0.5625        0.351852        0.14795391907514452        0        
C2        C        0.59375        0.407408        0.14795391907514452        0        
C3        C        0.5625        0.42592500000000005        0.14795391907514452        0        
C4        C        0.59375        0.37037        0.14795391907514452        0        
C1        C        0.5625        0.46296300000000007        0.14795391907514452        0        
C2        C        0.59375        0.518519        0.14795391907514452        0        
C3        C        0.5625        0.537037        0.14795391907514452        0        
C4        C        0.59375        0.481481        0.14795391907514452        0        
C1        C        0.5625        0.574075        0.14795391907514452        0        
C2        C        0.59375        0.62963        0.14795391907514452        0        
C3        C        0.5625        0.648148        0.14795391907514452        0        
C4        C        0.59375        0.592592        0.14795391907514452        0        
C1        C        0.625        0.018519        0.14795391907514452        0        
C2        C        0.65625        0.074075        0.14795391907514452        0        
C3        C        0.625        0.092592        0.14795391907514452        0        
C4        C        0.65625        0.037037        0.14795391907514452        0        
C1        C        0.625        0.12963        0.14795391907514452        0        
C2        C        0.65625        0.185185        0.14795391907514452        0        
C3        C        0.625        0.203703        0.14795391907514452        0        
C4        C        0.65625        0.148148        0.14795391907514452        0        
C1        C        0.625        0.24074099999999998        0.14795391907514452        0        
C2        C        0.65625        0.296297        0.14795391907514452        0        
C3        C        0.625        0.314815        0.14795391907514452        0        
C4        C        0.65625        0.259259        0.14795391907514452        0        
C1        C        0.625        0.351852        0.14795391907514452        0        
C2        C        0.65625        0.407408        0.14795391907514452        0        
C3        C        0.625        0.42592500000000005        0.14795391907514452        0        
C4        C        0.65625        0.37037        0.14795391907514452        0        
C1        C        0.625        0.46296300000000007        0.14795391907514452        0        
C2        C        0.65625        0.518519        0.14795391907514452        0        
C3        C        0.625        0.537037        0.14795391907514452        0        
C4        C        0.65625        0.481481        0.14795391907514452        0        
C1        C        0.625        0.574075        0.14795391907514452        0        
C2        C        0.65625        0.62963        0.14795391907514452        0        
C3        C        0.625        0.648148        0.14795391907514452        0        
C4        C        0.65625        0.592592        0.14795391907514452        0        
C1        C        0.6875        0.018519        0.14795391907514452        0        
C2        C        0.71875        0.074075        0.14795391907514452        0        
C3        C        0.6875        0.092592        0.14795391907514452        0        
C4        C        0.71875        0.037037        0.14795391907514452        0        
C1        C        0.6875        0.12963        0.14795391907514452        0        
C2        C        0.71875        0.185185        0.14795391907514452        0        
C3        C        0.6875        0.203703        0.14795391907514452        0        
C4        C        0.71875        0.148148        0.14795391907514452        0        
C1        C        0.6875        0.24074099999999998        0.14795391907514452        0        
C2        C        0.71875        0.296297        0.14795391907514452        0        
C3        C        0.6875        0.314815        0.14795391907514452        0        
C4        C        0.71875        0.259259        0.14795391907514452        0        
C1        C        0.6875        0.351852        0.14795391907514452        0        
C2        C        0.71875        0.407408        0.14795391907514452        0        
C3        C        0.6875        0.42592500000000005        0.14795391907514452        0        
C4        C        0.71875        0.37037        0.14795391907514452        0        
C1        C        0.6875        0.46296300000000007        0.14795391907514452        0        
C2        C        0.71875        0.518519        0.14795391907514452        0        
C3        C        0.6875        0.537037        0.14795391907514452        0        
C4        C        0.71875        0.481481        0.14795391907514452        0        
C1        C        0.6875        0.574075        0.14795391907514452        0        
C2        C        0.71875        0.62963        0.14795391907514452        0        
C3        C        0.6875        0.648148        0.14795391907514452        0        
C4        C        0.71875        0.592592        0.14795391907514452        0        
C1        C        0.75        0.018519        0.14795391907514452        0        
C2        C        0.78125        0.074075        0.14795391907514452        0        
C3        C        0.75        0.092592        0.14795391907514452        0        
C4        C        0.78125        0.037037        0.14795391907514452        0        
C1        C        0.75        0.12963        0.14795391907514452        0        
C2        C        0.78125        0.185185        0.14795391907514452        0        
C3        C        0.75        0.203703        0.14795391907514452        0        
C4        C        0.78125        0.148148        0.14795391907514452        0        
C1        C        0.75        0.24074099999999998        0.14795391907514452        0        
C2        C        0.78125        0.296297        0.14795391907514452        0        
C3        C        0.75        0.314815        0.14795391907514452        0        
C4        C        0.78125        0.259259        0.14795391907514452        0        
C1        C        0.75        0.351852        0.14795391907514452        0        
C2        C        0.78125        0.407408        0.14795391907514452        0        
C3        C        0.75        0.42592500000000005        0.14795391907514452        0        
C4        C        0.78125        0.37037        0.14795391907514452        0        
C1        C        0.75        0.46296300000000007        0.14795391907514452        0        
C2        C        0.78125        0.518519        0.14795391907514452        0        
C3        C        0.75        0.537037        0.14795391907514452        0        
C4        C        0.78125        0.481481        0.14795391907514452        0        
C1        C        0.75        0.574075        0.14795391907514452        0        
C2        C        0.78125        0.62963        0.14795391907514452        0        
C3        C        0.75        0.648148        0.14795391907514452        0        
C4        C        0.78125        0.592592        0.14795391907514452        0        
C1        C        0.8125        0.018519        0.14795391907514452        0        
C2        C        0.84375        0.074075        0.14795391907514452        0        
C3        C        0.8125        0.092592        0.14795391907514452        0        
C4        C        0.84375        0.037037        0.14795391907514452        0        
C1        C        0.8125        0.12963        0.14795391907514452        0        
C2        C        0.84375        0.185185        0.14795391907514452        0        
C3        C        0.8125        0.203703        0.14795391907514452        0        
C4        C        0.84375        0.148148        0.14795391907514452        0        
C1        C        0.8125        0.24074099999999998        0.14795391907514452        0        
C2        C        0.84375        0.296297        0.14795391907514452        0        
C3        C        0.8125        0.314815        0.14795391907514452        0        
C4        C        0.84375        0.259259        0.14795391907514452        0        
C1        C        0.8125        0.351852        0.14795391907514452        0        
C2        C        0.84375        0.407408        0.14795391907514452        0        
C3        C        0.8125        0.42592500000000005        0.14795391907514452        0        
C4        C        0.84375        0.37037        0.14795391907514452        0        
C1        C        0.8125        0.46296300000000007        0.14795391907514452        0        
C2        C        0.84375        0.518519        0.14795391907514452        0        
C3        C        0.8125        0.537037        0.14795391907514452        0        
C4        C        0.84375        0.481481        0.14795391907514452        0        
C1        C        0.8125        0.574075        0.14795391907514452        0        
C2        C        0.84375        0.62963        0.14795391907514452        0        
C3        C        0.8125        0.648148        0.14795391907514452        0        
C4        C        0.84375        0.592592        0.14795391907514452        0        
C1        C        0.875        0.018519        0.14795391907514452        0        
C2        C        0.9062500000000001        0.074075        0.14795391907514452        0        
C3        C        0.875        0.092592        0.14795391907514452        0        
C4        C        0.9062500000000001        0.037037        0.14795391907514452        0        
C1        C        0.875        0.12963        0.14795391907514452        0        
C2        C        0.9062500000000001        0.185185        0.14795391907514452        0        
C3        C        0.875        0.203703        0.14795391907514452        0        
C4        C        0.9062500000000001        0.148148        0.14795391907514452        0        
C1        C        0.875        0.24074099999999998        0.14795391907514452        0        
C2        C        0.9062500000000001        0.296297        0.14795391907514452        0        
C3        C        0.875        0.314815        0.14795391907514452        0        
C4        C        0.9062500000000001        0.259259        0.14795391907514452        0        
C1        C        0.875        0.351852        0.14795391907514452        0        
C2        C        0.9062500000000001        0.407408        0.14795391907514452        0        
C3        C        0.875        0.42592500000000005        0.14795391907514452        0        
C4        C        0.9062500000000001        0.37037        0.14795391907514452        0        
C1        C        0.875        0.46296300000000007        0.14795391907514452        0        
C2        C        0.9062500000000001        0.518519        0.14795391907514452        0        
C3        C        0.875        0.537037        0.14795391907514452        0        
C4        C        0.9062500000000001        0.481481        0.14795391907514452        0        
C1        C        0.875        0.574075        0.14795391907514452        0        
C2        C        0.9062500000000001        0.62963        0.14795391907514452        0        
C3        C        0.875        0.648148        0.14795391907514452        0        
C4        C        0.9062500000000001        0.592592        0.14795391907514452        0        
C1        C        0.9375        0.018519        0.14795391907514452        0        
C2        C        0.9687500000000001        0.074075        0.14795391907514452        0        
C3        C        0.9375        0.092592        0.14795391907514452        0        
C4        C        0.9687500000000001        0.037037        0.14795391907514452        0        
C1        C        0.9375        0.12963        0.14795391907514452        0        
C2        C        0.9687500000000001        0.185185        0.14795391907514452        0        
C3        C        0.9375        0.203703        0.14795391907514452        0        
C4        C        0.9687500000000001        0.148148        0.14795391907514452        0        
C1        C        0.9375        0.24074099999999998        0.14795391907514452        0        
C2        C        0.9687500000000001        0.296297        0.14795391907514452        0        
C3        C        0.9375        0.314815        0.14795391907514452        0        
C4        C        0.9687500000000001        0.259259        0.14795391907514452        0        
C1        C        0.9375        0.351852        0.14795391907514452        0        
C2        C        0.9687500000000001        0.407408        0.14795391907514452        0        
C3        C        0.9375        0.42592500000000005        0.14795391907514452        0        
C4        C        0.9687500000000001        0.37037        0.14795391907514452        0        
C1        C        0.9375        0.46296300000000007        0.14795391907514452        0        
C2        C        0.9687500000000001        0.518519        0.14795391907514452        0        
C3        C        0.9375        0.537037        0.14795391907514452        0        
C4        C        0.9687500000000001        0.481481        0.14795391907514452        0        
C1        C        0.9375        0.574075        0.14795391907514452        0        
C2        C        0.9687500000000001        0.62963        0.14795391907514452        0        
C3        C        0.9375        0.648148        0.14795391907514452        0        
C4        C        0.9687500000000001        0.592592        0.14795391907514452        0        
C1        C        0.0        0.685186        0.14795391907514452        0        
C1        C        0.0625        0.685186        0.14795391907514452        0        
C1        C        0.125        0.685186        0.14795391907514452        0        
C1        C        0.1875        0.685186        0.14795391907514452        0        
C1        C        0.25        0.685186        0.14795391907514452        0        
C1        C        0.3125        0.685186        0.14795391907514452        0        
C1        C        0.375        0.685186        0.14795391907514452        0        
C1        C        0.4375        0.685186        0.14795391907514452        0        
C1        C        0.5        0.685186        0.14795391907514452        0        
C1        C        0.5625        0.685186        0.14795391907514452        0        
C1        C        0.625        0.685186        0.14795391907514452        0        
C1        C        0.6875        0.685186        0.14795391907514452        0        
C1        C        0.75        0.685186        0.14795391907514452        0        
C1        C        0.8125        0.685186        0.14795391907514452        0        
C1        C        0.875        0.685186        0.14795391907514452        0        
C1        C        0.9375        0.685186        0.14795391907514452        0        
C2        C        0.03125        0.740741        0.14795391907514452        0        
C2        C        0.09375        0.740741        0.14795391907514452        0        
C2        C        0.15625        0.740741        0.14795391907514452        0        
C2        C        0.21875        0.740741        0.14795391907514452        0        
C2        C        0.28125        0.740741        0.14795391907514452        0        
C2        C        0.34375        0.740741        0.14795391907514452        0        
C2        C        0.40625        0.740741        0.14795391907514452        0        
C2        C        0.46875        0.740741        0.14795391907514452        0        
C2        C        0.53125        0.740741        0.14795391907514452        0        
C2        C        0.59375        0.740741        0.14795391907514452        0        
C2        C        0.65625        0.740741        0.14795391907514452        0        
C2        C        0.71875        0.740741        0.14795391907514452        0        
C2        C        0.78125        0.740741        0.14795391907514452        0        
C2        C        0.84375        0.740741        0.14795391907514452        0        
C2        C        0.9062500000000001        0.740741        0.14795391907514452        0        
C2        C        0.9687500000000001        0.740741        0.14795391907514452        0        
C3        C        0.0        0.759259        0.14795391907514452        0        
C3        C        0.0625        0.759259        0.14795391907514452        0        
C3        C        0.125        0.759259        0.14795391907514452        0        
C3        C        0.1875        0.759259        0.14795391907514452        0        
C3        C        0.25        0.759259        0.14795391907514452        0        
C3        C        0.3125        0.759259        0.14795391907514452        0        
C3        C        0.375        0.759259        0.14795391907514452        0        
C3        C        0.4375        0.759259        0.14795391907514452        0        
C3        C        0.5        0.759259        0.14795391907514452        0        
C3        C        0.5625        0.759259        0.14795391907514452        0        
C3        C        0.625        0.759259        0.14795391907514452        0        
C3        C        0.6875        0.759259        0.14795391907514452        0        
C3        C        0.75        0.759259        0.14795391907514452        0        
C3        C        0.8125        0.759259        0.14795391907514452        0        
C3        C        0.875        0.759259        0.14795391907514452        0        
C3        C        0.9375        0.759259        0.14795391907514452        0        
C4        C        0.03125        0.703703        0.14795391907514452        0        
C4        C        0.09375        0.703703        0.14795391907514452        0        
C4        C        0.15625        0.703703        0.14795391907514452        0        
C4        C        0.21875        0.703703        0.14795391907514452        0        
C4        C        0.28125        0.703703        0.14795391907514452        0        
C4        C        0.34375        0.703703        0.14795391907514452        0        
C4        C        0.40625        0.703703        0.14795391907514452        0        
C4        C        0.46875        0.703703        0.14795391907514452        0        
C4        C        0.53125        0.703703        0.14795391907514452        0        
C4        C        0.59375        0.703703        0.14795391907514452        0        
C4        C        0.65625        0.703703        0.14795391907514452        0        
C4        C        0.71875        0.703703        0.14795391907514452        0        
C4        C        0.78125        0.703703        0.14795391907514452        0        
C4        C        0.84375        0.703703        0.14795391907514452        0        
C4        C        0.9062500000000001        0.703703        0.14795391907514452        0        
C4        C        0.9687500000000001        0.703703        0.14795391907514452        0        
C1        C        0.0        0.796297        0.14795391907514452        0        
C1        C        0.0625        0.796297        0.14795391907514452        0        
C1        C        0.125        0.796297        0.14795391907514452        0        
C1        C        0.1875        0.796297        0.14795391907514452        0        
C1        C        0.25        0.796297        0.14795391907514452        0        
C1        C        0.3125        0.796297        0.14795391907514452        0        
C1        C        0.375        0.796297        0.14795391907514452        0        
C1        C        0.4375        0.796297        0.14795391907514452        0        
C1        C        0.5        0.796297        0.14795391907514452        0        
C1        C        0.5625        0.796297        0.14795391907514452        0        
C1        C        0.625        0.796297        0.14795391907514452        0        
C1        C        0.6875        0.796297        0.14795391907514452        0        
C1        C        0.75        0.796297        0.14795391907514452        0        
C1        C        0.8125        0.796297        0.14795391907514452        0        
C1        C        0.875        0.796297        0.14795391907514452        0        
C1        C        0.9375        0.796297        0.14795391907514452        0        
C2        C        0.03125        0.851852        0.14795391907514452        0        
C2        C        0.09375        0.851852        0.14795391907514452        0        
C2        C        0.15625        0.851852        0.14795391907514452        0        
C2        C        0.21875        0.851852        0.14795391907514452        0        
C2        C        0.28125        0.851852        0.14795391907514452        0        
C2        C        0.34375        0.851852        0.14795391907514452        0        
C2        C        0.40625        0.851852        0.14795391907514452        0        
C2        C        0.46875        0.851852        0.14795391907514452        0        
C2        C        0.53125        0.851852        0.14795391907514452        0        
C2        C        0.59375        0.851852        0.14795391907514452        0        
C2        C        0.65625        0.851852        0.14795391907514452        0        
C2        C        0.71875        0.851852        0.14795391907514452        0        
C2        C        0.78125        0.851852        0.14795391907514452        0        
C2        C        0.84375        0.851852        0.14795391907514452        0        
C2        C        0.9062500000000001        0.851852        0.14795391907514452        0        
C2        C        0.9687500000000001        0.851852        0.14795391907514452        0        
C3        C        0.0        0.87037        0.14795391907514452        0        
C3        C        0.0625        0.87037        0.14795391907514452        0        
C3        C        0.125        0.87037        0.14795391907514452        0        
C3        C        0.1875        0.87037        0.14795391907514452        0        
C3        C        0.25        0.87037        0.14795391907514452        0        
C3        C        0.3125        0.87037        0.14795391907514452        0        
C3        C        0.375        0.87037        0.14795391907514452        0        
C3        C        0.4375        0.87037        0.14795391907514452        0        
C3        C        0.5        0.87037        0.14795391907514452        0        
C3        C        0.5625        0.87037        0.14795391907514452        0        
C3        C        0.625        0.87037        0.14795391907514452        0        
C3        C        0.6875        0.87037        0.14795391907514452        0        
C3        C        0.75        0.87037        0.14795391907514452        0        
C3        C        0.8125        0.87037        0.14795391907514452        0        
C3        C        0.875        0.87037        0.14795391907514452        0        
C3        C        0.9375        0.87037        0.14795391907514452        0        
C4        C        0.03125        0.814814        0.14795391907514452        0        
C4        C        0.09375        0.814814        0.14795391907514452        0        
C4        C        0.15625        0.814814        0.14795391907514452        0        
C4        C        0.21875        0.814814        0.14795391907514452        0        
C4        C        0.28125        0.814814        0.14795391907514452        0        
C4        C        0.34375        0.814814        0.14795391907514452        0        
C4        C        0.40625        0.814814        0.14795391907514452        0        
C4        C        0.46875        0.814814        0.14795391907514452        0        
C4        C        0.53125        0.814814        0.14795391907514452        0        
C4        C        0.59375        0.814814        0.14795391907514452        0        
C4        C        0.65625        0.814814        0.14795391907514452        0        
C4        C        0.71875        0.814814        0.14795391907514452        0        
C4        C        0.78125        0.814814        0.14795391907514452        0        
C4        C        0.84375        0.814814        0.14795391907514452        0        
C4        C        0.9062500000000001        0.814814        0.14795391907514452        0        
C4        C        0.9687500000000001        0.814814        0.14795391907514452        0        
C1        C        0.0        0.907408        0.14795391907514452        0        
C1        C        0.0625        0.907408        0.14795391907514452        0        
C1        C        0.125        0.907408        0.14795391907514452        0        
C1        C        0.1875        0.907408        0.14795391907514452        0        
C1        C        0.25        0.907408        0.14795391907514452        0        
C1        C        0.3125        0.907408        0.14795391907514452        0        
C1        C        0.375        0.907408        0.14795391907514452        0        
C1        C        0.4375        0.907408        0.14795391907514452        0        
C1        C        0.5        0.907408        0.14795391907514452        0        
C1        C        0.5625        0.907408        0.14795391907514452        0        
C1        C        0.625        0.907408        0.14795391907514452        0        
C1        C        0.6875        0.907408        0.14795391907514452        0        
C1        C        0.75        0.907408        0.14795391907514452        0        
C1        C        0.8125        0.907408        0.14795391907514452        0        
C1        C        0.875        0.907408        0.14795391907514452        0        
C1        C        0.9375        0.907408        0.14795391907514452        0        
C2        C        0.03125        0.962963        0.14795391907514452        0        
C2        C        0.09375        0.962963        0.14795391907514452        0        
C2        C        0.15625        0.962963        0.14795391907514452        0        
C2        C        0.21875        0.962963        0.14795391907514452        0        
C2        C        0.28125        0.962963        0.14795391907514452        0        
C2        C        0.34375        0.962963        0.14795391907514452        0        
C2        C        0.40625        0.962963        0.14795391907514452        0        
C2        C        0.46875        0.962963        0.14795391907514452        0        
C2        C        0.53125        0.962963        0.14795391907514452        0        
C2        C        0.59375        0.962963        0.14795391907514452        0        
C2        C        0.65625        0.962963        0.14795391907514452        0        
C2        C        0.71875        0.962963        0.14795391907514452        0        
C2        C        0.78125        0.962963        0.14795391907514452        0        
C2        C        0.84375        0.962963        0.14795391907514452        0        
C2        C        0.9062500000000001        0.962963        0.14795391907514452        0        
C2        C        0.9687500000000001        0.962963        0.14795391907514452        0        
C3        C        0.0        0.9814809999999999        0.14795391907514452        0        
C3        C        0.0625        0.9814809999999999        0.14795391907514452        0        
C3        C        0.125        0.9814809999999999        0.14795391907514452        0        
C3        C        0.1875        0.9814809999999999        0.14795391907514452        0        
C3        C        0.25        0.9814809999999999        0.14795391907514452        0        
C3        C        0.3125        0.9814809999999999        0.14795391907514452        0        
C3        C        0.375        0.9814809999999999        0.14795391907514452        0        
C3        C        0.4375        0.9814809999999999        0.14795391907514452        0        
C3        C        0.5        0.9814809999999999        0.14795391907514452        0        
C3        C        0.5625        0.9814809999999999        0.14795391907514452        0        
C3        C        0.625        0.9814809999999999        0.14795391907514452        0        
C3        C        0.6875        0.9814809999999999        0.14795391907514452        0        
C3        C        0.75        0.9814809999999999        0.14795391907514452        0        
C3        C        0.8125        0.9814809999999999        0.14795391907514452        0        
C3        C        0.875        0.9814809999999999        0.14795391907514452        0        
C3        C        0.9375        0.9814809999999999        0.14795391907514452        0        
C4        C        0.03125        0.925925        0.14795391907514452        0        
C4        C        0.09375        0.925925        0.14795391907514452        0        
C4        C        0.15625        0.925925        0.14795391907514452        0        
C4        C        0.21875        0.925925        0.14795391907514452        0        
C4        C        0.28125        0.925925        0.14795391907514452        0        
C4        C        0.34375        0.925925        0.14795391907514452        0        
C4        C        0.40625        0.925925        0.14795391907514452        0        
C4        C        0.46875        0.925925        0.14795391907514452        0        
C4        C        0.53125        0.925925        0.14795391907514452        0        
C4        C        0.59375        0.925925        0.14795391907514452        0        
C4        C        0.65625        0.925925        0.14795391907514452        0        
C4        C        0.71875        0.925925        0.14795391907514452        0        
C4        C        0.78125        0.925925        0.14795391907514452        0        
C4        C        0.84375        0.925925        0.14795391907514452        0        
C4        C        0.9062500000000001        0.925925        0.14795391907514452        0        
C4        C        0.9687500000000001        0.925925        0.14795391907514452        0        
C_FG        C        0.0        0.018519        0.24477491907514454        0.2        
C2        C        0.03125        0.074075        0.24477491907514454        0        
C3        C        0.0        0.092592        0.24477491907514454        0        
C4        C        0.03125        0.037037        0.24477491907514454        0        
C1        C        0.0        0.12963        0.24477491907514454        0        
C2        C        0.03125        0.185185        0.24477491907514454        0        
C3        C        0.0        0.203703        0.24477491907514454        0        
C4        C        0.03125        0.148148        0.24477491907514454        0        
C1        C        0.0        0.24074099999999998        0.24477491907514454        0        
C2        C        0.03125        0.296297        0.24477491907514454        0        
C_FG        C        0.0        0.314815        0.24477491907514454        0.2        
C4        C        0.03125        0.259259        0.24477491907514454        0        
C1        C        0.0        0.351852        0.24477491907514454        0        
C2        C        0.03125        0.407408        0.24477491907514454        0        
C3        C        0.0        0.42592500000000005        0.24477491907514454        0        
C4        C        0.03125        0.37037        0.24477491907514454        0        
C1        C        0.0        0.46296300000000007        0.24477491907514454        0        
C2        C        0.03125        0.518519        0.24477491907514454        0        
C3        C        0.0        0.537037        0.24477491907514454        0        
C4        C        0.03125        0.481481        0.24477491907514454        0        
C_FG        C        0.0        0.574075        0.24477491907514454        0.2        
C2        C        0.03125        0.62963        0.24477491907514454        0        
C3        C        0.0        0.648148        0.24477491907514454        0        
C4        C        0.03125        0.592592        0.24477491907514454        0        
C1        C        0.0625        0.018519        0.24477491907514454        0        
C2        C        0.09375        0.074075        0.24477491907514454        0        
C3        C        0.0625        0.092592        0.24477491907514454        0        
C4        C        0.09375        0.037037        0.24477491907514454        0        
C1        C        0.0625        0.12963        0.24477491907514454        0        
C2        C        0.09375        0.185185        0.24477491907514454        0        
C3        C        0.0625        0.203703        0.24477491907514454        0        
C4        C        0.09375        0.148148        0.24477491907514454        0        
C1        C        0.0625        0.24074099999999998        0.24477491907514454        0        
C2        C        0.09375        0.296297        0.24477491907514454        0        
C3        C        0.0625        0.314815        0.24477491907514454        0        
C4        C        0.09375        0.259259        0.24477491907514454        0        
C1        C        0.0625        0.351852        0.24477491907514454        0        
C2        C        0.09375        0.407408        0.24477491907514454        0        
C3        C        0.0625        0.42592500000000005        0.24477491907514454        0        
C4        C        0.09375        0.37037        0.24477491907514454        0        
C1        C        0.0625        0.46296300000000007        0.24477491907514454        0        
C2        C        0.09375        0.518519        0.24477491907514454        0        
C3        C        0.0625        0.537037        0.24477491907514454        0        
C4        C        0.09375        0.481481        0.24477491907514454        0        
C1        C        0.0625        0.574075        0.24477491907514454        0        
C2        C        0.09375        0.62963        0.24477491907514454        0        
C3        C        0.0625        0.648148        0.24477491907514454        0        
C4        C        0.09375        0.592592        0.24477491907514454        0        
C1        C        0.125        0.018519        0.24477491907514454        0        
C2        C        0.15625        0.074075        0.24477491907514454        0        
C3        C        0.125        0.092592        0.24477491907514454        0        
C4        C        0.15625        0.037037        0.24477491907514454        0        
C1        C        0.125        0.12963        0.24477491907514454        0        
C2        C        0.15625        0.185185        0.24477491907514454        0        
C3        C        0.125        0.203703        0.24477491907514454        0        
C4        C        0.15625        0.148148        0.24477491907514454        0        
C1        C        0.125        0.24074099999999998        0.24477491907514454        0        
C2        C        0.15625        0.296297        0.24477491907514454        0        
C3        C        0.125        0.314815        0.24477491907514454        0        
C4        C        0.15625        0.259259        0.24477491907514454        0        
C1        C        0.125        0.351852        0.24477491907514454        0        
C2        C        0.15625        0.407408        0.24477491907514454        0        
C3        C        0.125        0.42592500000000005        0.24477491907514454        0        
C4        C        0.15625        0.37037        0.24477491907514454        0        
C1        C        0.125        0.46296300000000007        0.24477491907514454        0        
C2        C        0.15625        0.518519        0.24477491907514454        0        
C3        C        0.125        0.537037        0.24477491907514454        0        
C4        C        0.15625        0.481481        0.24477491907514454        0        
C1        C        0.125        0.574075        0.24477491907514454        0        
C2        C        0.15625        0.62963        0.24477491907514454        0        
C3        C        0.125        0.648148        0.24477491907514454        0        
C4        C        0.15625        0.592592        0.24477491907514454        0        
C1        C        0.1875        0.018519        0.24477491907514454        0        
C2        C        0.21875        0.074075        0.24477491907514454        0        
C3        C        0.1875        0.092592        0.24477491907514454        0        
C4        C        0.21875        0.037037        0.24477491907514454        0        
C1        C        0.1875        0.12963        0.24477491907514454        0        
C2        C        0.21875        0.185185        0.24477491907514454        0        
C3        C        0.1875        0.203703        0.24477491907514454        0        
C4        C        0.21875        0.148148        0.24477491907514454        0        
C1        C        0.1875        0.24074099999999998        0.24477491907514454        0        
C2        C        0.21875        0.296297        0.24477491907514454        0        
C3        C        0.1875        0.314815        0.24477491907514454        0        
C4        C        0.21875        0.259259        0.24477491907514454        0        
C1        C        0.1875        0.351852        0.24477491907514454        0        
C2        C        0.21875        0.407408        0.24477491907514454        0        
C3        C        0.1875        0.42592500000000005        0.24477491907514454        0        
C4        C        0.21875        0.37037        0.24477491907514454        0        
C1        C        0.1875        0.46296300000000007        0.24477491907514454        0        
C2        C        0.21875        0.518519        0.24477491907514454        0        
C3        C        0.1875        0.537037        0.24477491907514454        0        
C4        C        0.21875        0.481481        0.24477491907514454        0        
C1        C        0.1875        0.574075        0.24477491907514454        0        
C2        C        0.21875        0.62963        0.24477491907514454        0        
C3        C        0.1875        0.648148        0.24477491907514454        0        
C4        C        0.21875        0.592592        0.24477491907514454        0        
C_FG        C        0.25        0.018519        0.24477491907514454        0.2        
C2        C        0.28125        0.074075        0.24477491907514454        0        
C3        C        0.25        0.092592        0.24477491907514454        0        
C4        C        0.28125        0.037037        0.24477491907514454        0        
C1        C        0.25        0.12963        0.24477491907514454        0        
C2        C        0.28125        0.185185        0.24477491907514454        0        
C3        C        0.25        0.203703        0.24477491907514454        0        
C4        C        0.28125        0.148148        0.24477491907514454        0        
C1        C        0.25        0.24074099999999998        0.24477491907514454        0        
C2        C        0.28125        0.296297        0.24477491907514454        0        
C_FG        C        0.25        0.314815        0.24477491907514454        0.2        
C4        C        0.28125        0.259259        0.24477491907514454        0        
C1        C        0.25        0.351852        0.24477491907514454        0        
C2        C        0.28125        0.407408        0.24477491907514454        0        
C3        C        0.25        0.42592500000000005        0.24477491907514454        0        
C4        C        0.28125        0.37037        0.24477491907514454        0        
C1        C        0.25        0.46296300000000007        0.24477491907514454        0        
C2        C        0.28125        0.518519        0.24477491907514454        0        
C3        C        0.25        0.537037        0.24477491907514454        0        
C4        C        0.28125        0.481481        0.24477491907514454        0        
C_FG        C        0.25        0.574075        0.24477491907514454        0.2        
C2        C        0.28125        0.62963        0.24477491907514454        0        
C3        C        0.25        0.648148        0.24477491907514454        0        
C4        C        0.28125        0.592592        0.24477491907514454        0        
C1        C        0.3125        0.018519        0.24477491907514454        0        
C2        C        0.34375        0.074075        0.24477491907514454        0        
C3        C        0.3125        0.092592        0.24477491907514454        0        
C4        C        0.34375        0.037037        0.24477491907514454        0        
C1        C        0.3125        0.12963        0.24477491907514454        0        
C2        C        0.34375        0.185185        0.24477491907514454        0        
C3        C        0.3125        0.203703        0.24477491907514454        0        
C4        C        0.34375        0.148148        0.24477491907514454        0        
C1        C        0.3125        0.24074099999999998        0.24477491907514454        0        
C2        C        0.34375        0.296297        0.24477491907514454        0        
C3        C        0.3125        0.314815        0.24477491907514454        0        
C4        C        0.34375        0.259259        0.24477491907514454        0        
C1        C        0.3125        0.351852        0.24477491907514454        0        
C2        C        0.34375        0.407408        0.24477491907514454        0        
C3        C        0.3125        0.42592500000000005        0.24477491907514454        0        
C4        C        0.34375        0.37037        0.24477491907514454        0        
C1        C        0.3125        0.46296300000000007        0.24477491907514454        0        
C2        C        0.34375        0.518519        0.24477491907514454        0        
C3        C        0.3125        0.537037        0.24477491907514454        0        
C4        C        0.34375        0.481481        0.24477491907514454        0        
C1        C        0.3125        0.574075        0.24477491907514454        0        
C2        C        0.34375        0.62963        0.24477491907514454        0        
C3        C        0.3125        0.648148        0.24477491907514454        0        
C4        C        0.34375        0.592592        0.24477491907514454        0        
C1        C        0.375        0.018519        0.24477491907514454        0        
C2        C        0.40625        0.074075        0.24477491907514454        0        
C3        C        0.375        0.092592        0.24477491907514454        0        
C4        C        0.40625        0.037037        0.24477491907514454        0        
C1        C        0.375        0.12963        0.24477491907514454        0        
C2        C        0.40625        0.185185        0.24477491907514454        0        
C3        C        0.375        0.203703        0.24477491907514454        0        
C4        C        0.40625        0.148148        0.24477491907514454        0        
C1        C        0.375        0.24074099999999998        0.24477491907514454        0        
C2        C        0.40625        0.296297        0.24477491907514454        0        
C3        C        0.375        0.314815        0.24477491907514454        0        
C4        C        0.40625        0.259259        0.24477491907514454        0        
C1        C        0.375        0.351852        0.24477491907514454        0        
C2        C        0.40625        0.407408        0.24477491907514454        0        
C3        C        0.375        0.42592500000000005        0.24477491907514454        0        
C4        C        0.40625        0.37037        0.24477491907514454        0        
C1        C        0.375        0.46296300000000007        0.24477491907514454        0        
C2        C        0.40625        0.518519        0.24477491907514454        0        
C3        C        0.375        0.537037        0.24477491907514454        0        
C4        C        0.40625        0.481481        0.24477491907514454        0        
C1        C        0.375        0.574075        0.24477491907514454        0        
C2        C        0.40625        0.62963        0.24477491907514454        0        
C3        C        0.375        0.648148        0.24477491907514454        0        
C4        C        0.40625        0.592592        0.24477491907514454        0        
C1        C        0.4375        0.018519        0.24477491907514454        0        
C2        C        0.46875        0.074075        0.24477491907514454        0        
C3        C        0.4375        0.092592        0.24477491907514454        0        
C4        C        0.46875        0.037037        0.24477491907514454        0        
C1        C        0.4375        0.12963        0.24477491907514454        0        
C2        C        0.46875        0.185185        0.24477491907514454        0        
C3        C        0.4375        0.203703        0.24477491907514454        0        
C4        C        0.46875        0.148148        0.24477491907514454        0        
C1        C        0.4375        0.24074099999999998        0.24477491907514454        0        
C2        C        0.46875        0.296297        0.24477491907514454        0        
C3        C        0.4375        0.314815        0.24477491907514454        0        
C4        C        0.46875        0.259259        0.24477491907514454        0        
C1        C        0.4375        0.351852        0.24477491907514454        0        
C2        C        0.46875        0.407408        0.24477491907514454        0        
C3        C        0.4375        0.42592500000000005        0.24477491907514454        0        
C4        C        0.46875        0.37037        0.24477491907514454        0        
C1        C        0.4375        0.46296300000000007        0.24477491907514454        0        
C2        C        0.46875        0.518519        0.24477491907514454        0        
C3        C        0.4375        0.537037        0.24477491907514454        0        
C4        C        0.46875        0.481481        0.24477491907514454        0        
C1        C        0.4375        0.574075        0.24477491907514454        0        
C2        C        0.46875        0.62963        0.24477491907514454        0        
C3        C        0.4375        0.648148        0.24477491907514454        0        
C4        C        0.46875        0.592592        0.24477491907514454        0        
C_FG        C        0.5        0.018519        0.24477491907514454        0.2        
C2        C        0.53125        0.074075        0.24477491907514454        0        
C3        C        0.5        0.092592        0.24477491907514454        0        
C4        C        0.53125        0.037037        0.24477491907514454        0        
C1        C        0.5        0.12963        0.24477491907514454        0        
C2        C        0.53125        0.185185        0.24477491907514454        0        
C3        C        0.5        0.203703        0.24477491907514454        0        
C4        C        0.53125        0.148148        0.24477491907514454        0        
C1        C        0.5        0.24074099999999998        0.24477491907514454        0        
C2        C        0.53125        0.296297        0.24477491907514454        0        
C_FG        C        0.5        0.314815        0.24477491907514454        0.2        
C4        C        0.53125        0.259259        0.24477491907514454        0        
C1        C        0.5        0.351852        0.24477491907514454        0        
C2        C        0.53125        0.407408        0.24477491907514454        0        
C3        C        0.5        0.42592500000000005        0.24477491907514454        0        
C4        C        0.53125        0.37037        0.24477491907514454        0        
C1        C        0.5        0.46296300000000007        0.24477491907514454        0        
C2        C        0.53125        0.518519        0.24477491907514454        0        
C3        C        0.5        0.537037        0.24477491907514454        0        
C4        C        0.53125        0.481481        0.24477491907514454        0        
C_FG        C        0.5        0.574075        0.24477491907514454        0.2        
C2        C        0.53125        0.62963        0.24477491907514454        0        
C3        C        0.5        0.648148        0.24477491907514454        0        
C4        C        0.53125        0.592592        0.24477491907514454        0        
C1        C        0.5625        0.018519        0.24477491907514454        0        
C2        C        0.59375        0.074075        0.24477491907514454        0        
C3        C        0.5625        0.092592        0.24477491907514454        0        
C4        C        0.59375        0.037037        0.24477491907514454        0        
C1        C        0.5625        0.12963        0.24477491907514454        0        
C2        C        0.59375        0.185185        0.24477491907514454        0        
C3        C        0.5625        0.203703        0.24477491907514454        0        
C4        C        0.59375        0.148148        0.24477491907514454        0        
C1        C        0.5625        0.24074099999999998        0.24477491907514454        0        
C2        C        0.59375        0.296297        0.24477491907514454        0        
C3        C        0.5625        0.314815        0.24477491907514454        0        
C4        C        0.59375        0.259259        0.24477491907514454        0        
C1        C        0.5625        0.351852        0.24477491907514454        0        
C2        C        0.59375        0.407408        0.24477491907514454        0        
C3        C        0.5625        0.42592500000000005        0.24477491907514454        0        
C4        C        0.59375        0.37037        0.24477491907514454        0        
C1        C        0.5625        0.46296300000000007        0.24477491907514454        0        
C2        C        0.59375        0.518519        0.24477491907514454        0        
C3        C        0.5625        0.537037        0.24477491907514454        0        
C4        C        0.59375        0.481481        0.24477491907514454        0        
C1        C        0.5625        0.574075        0.24477491907514454        0        
C2        C        0.59375        0.62963        0.24477491907514454        0        
C3        C        0.5625        0.648148        0.24477491907514454        0        
C4        C        0.59375        0.592592        0.24477491907514454        0        
C1        C        0.625        0.018519        0.24477491907514454        0        
C2        C        0.65625        0.074075        0.24477491907514454        0        
C3        C        0.625        0.092592        0.24477491907514454        0        
C4        C        0.65625        0.037037        0.24477491907514454        0        
C1        C        0.625        0.12963        0.24477491907514454        0        
C2        C        0.65625        0.185185        0.24477491907514454        0        
C3        C        0.625        0.203703        0.24477491907514454        0        
C4        C        0.65625        0.148148        0.24477491907514454        0        
C1        C        0.625        0.24074099999999998        0.24477491907514454        0        
C2        C        0.65625        0.296297        0.24477491907514454        0        
C3        C        0.625        0.314815        0.24477491907514454        0        
C4        C        0.65625        0.259259        0.24477491907514454        0        
C1        C        0.625        0.351852        0.24477491907514454        0        
C2        C        0.65625        0.407408        0.24477491907514454        0        
C3        C        0.625        0.42592500000000005        0.24477491907514454        0        
C4        C        0.65625        0.37037        0.24477491907514454        0        
C1        C        0.625        0.46296300000000007        0.24477491907514454        0        
C2        C        0.65625        0.518519        0.24477491907514454        0        
C3        C        0.625        0.537037        0.24477491907514454        0        
C4        C        0.65625        0.481481        0.24477491907514454        0        
C1        C        0.625        0.574075        0.24477491907514454        0        
C2        C        0.65625        0.62963        0.24477491907514454        0        
C3        C        0.625        0.648148        0.24477491907514454        0        
C4        C        0.65625        0.592592        0.24477491907514454        0        
C1        C        0.6875        0.018519        0.24477491907514454        0        
C2        C        0.71875        0.074075        0.24477491907514454        0        
C3        C        0.6875        0.092592        0.24477491907514454        0        
C4        C        0.71875        0.037037        0.24477491907514454        0        
C1        C        0.6875        0.12963        0.24477491907514454        0        
C2        C        0.71875        0.185185        0.24477491907514454        0        
C3        C        0.6875        0.203703        0.24477491907514454        0        
C4        C        0.71875        0.148148        0.24477491907514454        0        
C1        C        0.6875        0.24074099999999998        0.24477491907514454        0        
C2        C        0.71875        0.296297        0.24477491907514454        0        
C3        C        0.6875        0.314815        0.24477491907514454        0        
C4        C        0.71875        0.259259        0.24477491907514454        0        
C1        C        0.6875        0.351852        0.24477491907514454        0        
C2        C        0.71875        0.407408        0.24477491907514454        0        
C3        C        0.6875        0.42592500000000005        0.24477491907514454        0        
C4        C        0.71875        0.37037        0.24477491907514454        0        
C1        C        0.6875        0.46296300000000007        0.24477491907514454        0        
C2        C        0.71875        0.518519        0.24477491907514454        0        
C3        C        0.6875        0.537037        0.24477491907514454        0        
C4        C        0.71875        0.481481        0.24477491907514454        0        
C1        C        0.6875        0.574075        0.24477491907514454        0        
C2        C        0.71875        0.62963        0.24477491907514454        0        
C3        C        0.6875        0.648148        0.24477491907514454        0        
C4        C        0.71875        0.592592        0.24477491907514454        0        
C_FG        C        0.75        0.018519        0.24477491907514454        0.2        
C2        C        0.78125        0.074075        0.24477491907514454        0        
C3        C        0.75        0.092592        0.24477491907514454        0        
C4        C        0.78125        0.037037        0.24477491907514454        0        
C1        C        0.75        0.12963        0.24477491907514454        0        
C2        C        0.78125        0.185185        0.24477491907514454        0        
C3        C        0.75        0.203703        0.24477491907514454        0        
C4        C        0.78125        0.148148        0.24477491907514454        0        
C1        C        0.75        0.24074099999999998        0.24477491907514454        0        
C2        C        0.78125        0.296297        0.24477491907514454        0        
C_FG        C        0.75        0.314815        0.24477491907514454        0.2        
C4        C        0.78125        0.259259        0.24477491907514454        0        
C1        C        0.75        0.351852        0.24477491907514454        0        
C2        C        0.78125        0.407408        0.24477491907514454        0        
C3        C        0.75        0.42592500000000005        0.24477491907514454        0        
C4        C        0.78125        0.37037        0.24477491907514454        0        
C1        C        0.75        0.46296300000000007        0.24477491907514454        0        
C2        C        0.78125        0.518519        0.24477491907514454        0        
C3        C        0.75        0.537037        0.24477491907514454        0        
C4        C        0.78125        0.481481        0.24477491907514454        0        
C_FG        C        0.75        0.574075        0.24477491907514454        0.2        
C2        C        0.78125        0.62963        0.24477491907514454        0        
C3        C        0.75        0.648148        0.24477491907514454        0        
C4        C        0.78125        0.592592        0.24477491907514454        0        
C1        C        0.8125        0.018519        0.24477491907514454        0        
C2        C        0.84375        0.074075        0.24477491907514454        0        
C3        C        0.8125        0.092592        0.24477491907514454        0        
C4        C        0.84375        0.037037        0.24477491907514454        0        
C1        C        0.8125        0.12963        0.24477491907514454        0        
C2        C        0.84375        0.185185        0.24477491907514454        0        
C3        C        0.8125        0.203703        0.24477491907514454        0        
C4        C        0.84375        0.148148        0.24477491907514454        0        
C1        C        0.8125        0.24074099999999998        0.24477491907514454        0        
C2        C        0.84375        0.296297        0.24477491907514454        0        
C3        C        0.8125        0.314815        0.24477491907514454        0        
C4        C        0.84375        0.259259        0.24477491907514454        0        
C1        C        0.8125        0.351852        0.24477491907514454        0        
C2        C        0.84375        0.407408        0.24477491907514454        0        
C3        C        0.8125        0.42592500000000005        0.24477491907514454        0        
C4        C        0.84375        0.37037        0.24477491907514454        0        
C1        C        0.8125        0.46296300000000007        0.24477491907514454        0        
C2        C        0.84375        0.518519        0.24477491907514454        0        
C3        C        0.8125        0.537037        0.24477491907514454        0        
C4        C        0.84375        0.481481        0.24477491907514454        0        
C1        C        0.8125        0.574075        0.24477491907514454        0        
C2        C        0.84375        0.62963        0.24477491907514454        0        
C3        C        0.8125        0.648148        0.24477491907514454        0        
C4        C        0.84375        0.592592        0.24477491907514454        0        
C1        C        0.875        0.018519        0.24477491907514454        0        
C2        C        0.9062500000000001        0.074075        0.24477491907514454        0        
C3        C        0.875        0.092592        0.24477491907514454        0        
C4        C        0.9062500000000001        0.037037        0.24477491907514454        0        
C1        C        0.875        0.12963        0.24477491907514454        0        
C2        C        0.9062500000000001        0.185185        0.24477491907514454        0        
C3        C        0.875        0.203703        0.24477491907514454        0        
C4        C        0.9062500000000001        0.148148        0.24477491907514454        0        
C1        C        0.875        0.24074099999999998        0.24477491907514454        0        
C2        C        0.9062500000000001        0.296297        0.24477491907514454        0        
C3        C        0.875        0.314815        0.24477491907514454        0        
C4        C        0.9062500000000001        0.259259        0.24477491907514454        0        
C1        C        0.875        0.351852        0.24477491907514454        0        
C2        C        0.9062500000000001        0.407408        0.24477491907514454        0        
C3        C        0.875        0.42592500000000005        0.24477491907514454        0        
C4        C        0.9062500000000001        0.37037        0.24477491907514454        0        
C1        C        0.875        0.46296300000000007        0.24477491907514454        0        
C2        C        0.9062500000000001        0.518519        0.24477491907514454        0        
C3        C        0.875        0.537037        0.24477491907514454        0        
C4        C        0.9062500000000001        0.481481        0.24477491907514454        0        
C1        C        0.875        0.574075        0.24477491907514454        0        
C2        C        0.9062500000000001        0.62963        0.24477491907514454        0        
C3        C        0.875        0.648148        0.24477491907514454        0        
C4        C        0.9062500000000001        0.592592        0.24477491907514454        0        
C1        C        0.9375        0.018519        0.24477491907514454        0        
C2        C        0.9687500000000001        0.074075        0.24477491907514454        0        
C3        C        0.9375        0.092592        0.24477491907514454        0        
C4        C        0.9687500000000001        0.037037        0.24477491907514454        0        
C1        C        0.9375        0.12963        0.24477491907514454        0        
C2        C        0.9687500000000001        0.185185        0.24477491907514454        0        
C3        C        0.9375        0.203703        0.24477491907514454        0        
C4        C        0.9687500000000001        0.148148        0.24477491907514454        0        
C1        C        0.9375        0.24074099999999998        0.24477491907514454        0        
C2        C        0.9687500000000001        0.296297        0.24477491907514454        0        
C3        C        0.9375        0.314815        0.24477491907514454        0        
C4        C        0.9687500000000001        0.259259        0.24477491907514454        0        
C1        C        0.9375        0.351852        0.24477491907514454        0        
C2        C        0.9687500000000001        0.407408        0.24477491907514454        0        
C3        C        0.9375        0.42592500000000005        0.24477491907514454        0        
C4        C        0.9687500000000001        0.37037        0.24477491907514454        0        
C1        C        0.9375        0.46296300000000007        0.24477491907514454        0        
C2        C        0.9687500000000001        0.518519        0.24477491907514454        0        
C3        C        0.9375        0.537037        0.24477491907514454        0        
C4        C        0.9687500000000001        0.481481        0.24477491907514454        0        
C1        C        0.9375        0.574075        0.24477491907514454        0        
C2        C        0.9687500000000001        0.62963        0.24477491907514454        0        
C3        C        0.9375        0.648148        0.24477491907514454        0        
C4        C        0.9687500000000001        0.592592        0.24477491907514454        0        
C1        C        0.0        0.685186        0.24477491907514454        0        
C1        C        0.0625        0.685186        0.24477491907514454        0        
C1        C        0.125        0.685186        0.24477491907514454        0        
C1        C        0.1875        0.685186        0.24477491907514454        0        
C1        C        0.25        0.685186        0.24477491907514454        0        
C1        C        0.3125        0.685186        0.24477491907514454        0        
C1        C        0.375        0.685186        0.24477491907514454        0        
C1        C        0.4375        0.685186        0.24477491907514454        0        
C1        C        0.5        0.685186        0.24477491907514454        0        
C1        C        0.5625        0.685186        0.24477491907514454        0        
C1        C        0.625        0.685186        0.24477491907514454        0        
C1        C        0.6875        0.685186        0.24477491907514454        0        
C1        C        0.75        0.685186        0.24477491907514454        0        
C1        C        0.8125        0.685186        0.24477491907514454        0        
C1        C        0.875        0.685186        0.24477491907514454        0        
C1        C        0.9375        0.685186        0.24477491907514454        0        
C2        C        0.03125        0.740741        0.24477491907514454        0        
C2        C        0.09375        0.740741        0.24477491907514454        0        
C2        C        0.15625        0.740741        0.24477491907514454        0        
C2        C        0.21875        0.740741        0.24477491907514454        0        
C2        C        0.28125        0.740741        0.24477491907514454        0        
C2        C        0.34375        0.740741        0.24477491907514454        0        
C2        C        0.40625        0.740741        0.24477491907514454        0        
C2        C        0.46875        0.740741        0.24477491907514454        0        
C2        C        0.53125        0.740741        0.24477491907514454        0        
C2        C        0.59375        0.740741        0.24477491907514454        0        
C2        C        0.65625        0.740741        0.24477491907514454        0        
C2        C        0.71875        0.740741        0.24477491907514454        0        
C2        C        0.78125        0.740741        0.24477491907514454        0        
C2        C        0.84375        0.740741        0.24477491907514454        0        
C2        C        0.9062500000000001        0.740741        0.24477491907514454        0        
C2        C        0.9687500000000001        0.740741        0.24477491907514454        0        
C3        C        0.0        0.759259        0.24477491907514454        0        
C3        C        0.0625        0.759259        0.24477491907514454        0        
C3        C        0.125        0.759259        0.24477491907514454        0        
C3        C        0.1875        0.759259        0.24477491907514454        0        
C3        C        0.25        0.759259        0.24477491907514454        0        
C3        C        0.3125        0.759259        0.24477491907514454        0        
C3        C        0.375        0.759259        0.24477491907514454        0        
C3        C        0.4375        0.759259        0.24477491907514454        0        
C3        C        0.5        0.759259        0.24477491907514454        0        
C3        C        0.5625        0.759259        0.24477491907514454        0        
C3        C        0.625        0.759259        0.24477491907514454        0        
C3        C        0.6875        0.759259        0.24477491907514454        0        
C3        C        0.75        0.759259        0.24477491907514454        0        
C3        C        0.8125        0.759259        0.24477491907514454        0        
C3        C        0.875        0.759259        0.24477491907514454        0        
C3        C        0.9375        0.759259        0.24477491907514454        0        
C4        C        0.03125        0.703703        0.24477491907514454        0        
C4        C        0.09375        0.703703        0.24477491907514454        0        
C4        C        0.15625        0.703703        0.24477491907514454        0        
C4        C        0.21875        0.703703        0.24477491907514454        0        
C4        C        0.28125        0.703703        0.24477491907514454        0        
C4        C        0.34375        0.703703        0.24477491907514454        0        
C4        C        0.40625        0.703703        0.24477491907514454        0        
C4        C        0.46875        0.703703        0.24477491907514454        0        
C4        C        0.53125        0.703703        0.24477491907514454        0        
C4        C        0.59375        0.703703        0.24477491907514454        0        
C4        C        0.65625        0.703703        0.24477491907514454        0        
C4        C        0.71875        0.703703        0.24477491907514454        0        
C4        C        0.78125        0.703703        0.24477491907514454        0        
C4        C        0.84375        0.703703        0.24477491907514454        0        
C4        C        0.9062500000000001        0.703703        0.24477491907514454        0        
C4        C        0.9687500000000001        0.703703        0.24477491907514454        0        
C1        C        0.0        0.796297        0.24477491907514454        0        
C1        C        0.0625        0.796297        0.24477491907514454        0        
C1        C        0.125        0.796297        0.24477491907514454        0        
C1        C        0.1875        0.796297        0.24477491907514454        0        
C1        C        0.25        0.796297        0.24477491907514454        0        
C1        C        0.3125        0.796297        0.24477491907514454        0        
C1        C        0.375        0.796297        0.24477491907514454        0        
C1        C        0.4375        0.796297        0.24477491907514454        0        
C1        C        0.5        0.796297        0.24477491907514454        0        
C1        C        0.5625        0.796297        0.24477491907514454        0        
C1        C        0.625        0.796297        0.24477491907514454        0        
C1        C        0.6875        0.796297        0.24477491907514454        0        
C1        C        0.75        0.796297        0.24477491907514454        0        
C1        C        0.8125        0.796297        0.24477491907514454        0        
C1        C        0.875        0.796297        0.24477491907514454        0        
C1        C        0.9375        0.796297        0.24477491907514454        0        
C2        C        0.03125        0.851852        0.24477491907514454        0        
C2        C        0.09375        0.851852        0.24477491907514454        0        
C2        C        0.15625        0.851852        0.24477491907514454        0        
C2        C        0.21875        0.851852        0.24477491907514454        0        
C2        C        0.28125        0.851852        0.24477491907514454        0        
C2        C        0.34375        0.851852        0.24477491907514454        0        
C2        C        0.40625        0.851852        0.24477491907514454        0        
C2        C        0.46875        0.851852        0.24477491907514454        0        
C2        C        0.53125        0.851852        0.24477491907514454        0        
C2        C        0.59375        0.851852        0.24477491907514454        0        
C2        C        0.65625        0.851852        0.24477491907514454        0        
C2        C        0.71875        0.851852        0.24477491907514454        0        
C2        C        0.78125        0.851852        0.24477491907514454        0        
C2        C        0.84375        0.851852        0.24477491907514454        0        
C2        C        0.9062500000000001        0.851852        0.24477491907514454        0        
C2        C        0.9687500000000001        0.851852        0.24477491907514454        0        
C_FG        C        0.0        0.87037        0.24477491907514454        0.2        
C3        C        0.0625        0.87037        0.24477491907514454        0        
C3        C        0.125        0.87037        0.24477491907514454        0        
C3        C        0.1875        0.87037        0.24477491907514454        0        
C_FG        C        0.25        0.87037        0.24477491907514454        0.2        
C3        C        0.3125        0.87037        0.24477491907514454        0        
C3        C        0.375        0.87037        0.24477491907514454        0        
C3        C        0.4375        0.87037        0.24477491907514454        0        
C_FG        C        0.5        0.87037        0.24477491907514454        0.2        
C3        C        0.5625        0.87037        0.24477491907514454        0        
C3        C        0.625        0.87037        0.24477491907514454        0        
C3        C        0.6875        0.87037        0.24477491907514454        0        
C_FG        C        0.75        0.87037        0.24477491907514454        0.2        
C3        C        0.8125        0.87037        0.24477491907514454        0        
C3        C        0.875        0.87037        0.24477491907514454        0        
C3        C        0.9375        0.87037        0.24477491907514454        0        
C4        C        0.03125        0.814814        0.24477491907514454        0        
C4        C        0.09375        0.814814        0.24477491907514454        0        
C4        C        0.15625        0.814814        0.24477491907514454        0        
C4        C        0.21875        0.814814        0.24477491907514454        0        
C4        C        0.28125        0.814814        0.24477491907514454        0        
C4        C        0.34375        0.814814        0.24477491907514454        0        
C4        C        0.40625        0.814814        0.24477491907514454        0        
C4        C        0.46875        0.814814        0.24477491907514454        0        
C4        C        0.53125        0.814814        0.24477491907514454        0        
C4        C        0.59375        0.814814        0.24477491907514454        0        
C4        C        0.65625        0.814814        0.24477491907514454        0        
C4        C        0.71875        0.814814        0.24477491907514454        0        
C4        C        0.78125        0.814814        0.24477491907514454        0        
C4        C        0.84375        0.814814        0.24477491907514454        0        
C4        C        0.9062500000000001        0.814814        0.24477491907514454        0        
C4        C        0.9687500000000001        0.814814        0.24477491907514454        0        
C1        C        0.0        0.907408        0.24477491907514454        0        
C1        C        0.0625        0.907408        0.24477491907514454        0        
C1        C        0.125        0.907408        0.24477491907514454        0        
C1        C        0.1875        0.907408        0.24477491907514454        0        
C1        C        0.25        0.907408        0.24477491907514454        0        
C1        C        0.3125        0.907408        0.24477491907514454        0        
C1        C        0.375        0.907408        0.24477491907514454        0        
C1        C        0.4375        0.907408        0.24477491907514454        0        
C1        C        0.5        0.907408        0.24477491907514454        0        
C1        C        0.5625        0.907408        0.24477491907514454        0        
C1        C        0.625        0.907408        0.24477491907514454        0        
C1        C        0.6875        0.907408        0.24477491907514454        0        
C1        C        0.75        0.907408        0.24477491907514454        0        
C1        C        0.8125        0.907408        0.24477491907514454        0        
C1        C        0.875        0.907408        0.24477491907514454        0        
C1        C        0.9375        0.907408        0.24477491907514454        0        
C2        C        0.03125        0.962963        0.24477491907514454        0        
C2        C        0.09375        0.962963        0.24477491907514454        0        
C2        C        0.15625        0.962963        0.24477491907514454        0        
C2        C        0.21875        0.962963        0.24477491907514454        0        
C2        C        0.28125        0.962963        0.24477491907514454        0        
C2        C        0.34375        0.962963        0.24477491907514454        0        
C2        C        0.40625        0.962963        0.24477491907514454        0        
C2        C        0.46875        0.962963        0.24477491907514454        0        
C2        C        0.53125        0.962963        0.24477491907514454        0        
C2        C        0.59375        0.962963        0.24477491907514454        0        
C2        C        0.65625        0.962963        0.24477491907514454        0        
C2        C        0.71875        0.962963        0.24477491907514454        0        
C2        C        0.78125        0.962963        0.24477491907514454        0        
C2        C        0.84375        0.962963        0.24477491907514454        0        
C2        C        0.9062500000000001        0.962963        0.24477491907514454        0        
C2        C        0.9687500000000001        0.962963        0.24477491907514454        0        
C3        C        0.0        0.9814809999999999        0.24477491907514454        0        
C3        C        0.0625        0.9814809999999999        0.24477491907514454        0        
C3        C        0.125        0.9814809999999999        0.24477491907514454        0        
C3        C        0.1875        0.9814809999999999        0.24477491907514454        0        
C3        C        0.25        0.9814809999999999        0.24477491907514454        0        
C3        C        0.3125        0.9814809999999999        0.24477491907514454        0        
C3        C        0.375        0.9814809999999999        0.24477491907514454        0        
C3        C        0.4375        0.9814809999999999        0.24477491907514454        0        
C3        C        0.5        0.9814809999999999        0.24477491907514454        0        
C3        C        0.5625        0.9814809999999999        0.24477491907514454        0        
C3        C        0.625        0.9814809999999999        0.24477491907514454        0        
C3        C        0.6875        0.9814809999999999        0.24477491907514454        0        
C3        C        0.75        0.9814809999999999        0.24477491907514454        0        
C3        C        0.8125        0.9814809999999999        0.24477491907514454        0        
C3        C        0.875        0.9814809999999999        0.24477491907514454        0        
C3        C        0.9375        0.9814809999999999        0.24477491907514454        0        
C4        C        0.03125        0.925925        0.24477491907514454        0        
C4        C        0.09375        0.925925        0.24477491907514454        0        
C4        C        0.15625        0.925925        0.24477491907514454        0        
C4        C        0.21875        0.925925        0.24477491907514454        0        
C4        C        0.28125        0.925925        0.24477491907514454        0        
C4        C        0.34375        0.925925        0.24477491907514454        0        
C4        C        0.40625        0.925925        0.24477491907514454        0        
C4        C        0.46875        0.925925        0.24477491907514454        0        
C4        C        0.53125        0.925925        0.24477491907514454        0        
C4        C        0.59375        0.925925        0.24477491907514454        0        
C4        C        0.65625        0.925925        0.24477491907514454        0        
C4        C        0.71875        0.925925        0.24477491907514454        0        
C4        C        0.78125        0.925925        0.24477491907514454        0        
C4        C        0.84375        0.925925        0.24477491907514454        0        
C4        C        0.9062500000000001        0.925925        0.24477491907514454        0        
C4        C        0.9687500000000001        0.925925        0.24477491907514454        0        
O_OH        O        0.0        0.018519        0.00971673410404624        -0.64        
O_OH        O        0.0        0.314815        0.00971673410404624        -0.64        
O_OH        O        0.0        0.574075        0.00971673410404624        -0.64        
O_OH        O        0.25        0.018519        0.00971673410404624        -0.64        
O_OH        O        0.25        0.314815        0.00971673410404624        -0.64        
O_OH        O        0.25        0.574075        0.00971673410404624        -0.64        
O_OH        O        0.5        0.018519        0.00971673410404624        -0.64        
O_OH        O        0.5        0.314815        0.00971673410404624        -0.64        
O_OH        O        0.5        0.574075        0.00971673410404624        -0.64        
O_OH        O        0.75        0.018519        0.00971673410404624        -0.64        
O_OH        O        0.75        0.314815        0.00971673410404624        -0.64        
O_OH        O        0.75        0.574075        0.00971673410404624        -0.64        
O_OH        O        0.0        0.87037        0.00971673410404624        -0.64        
O_OH        O        0.25        0.87037        0.00971673410404624        -0.64        
O_OH        O        0.5        0.87037        0.00971673410404624        -0.64        
O_OH        O        0.75        0.87037        0.00971673410404624        -0.64        
O_OH        O        0.0        0.018519        0.2861907225433526        -0.64        
O_OH        O        0.0        0.314815        0.2861907225433526        -0.64        
O_OH        O        0.0        0.574075        0.2861907225433526        -0.64        
O_OH        O        0.25        0.018519        0.2861907225433526        -0.64        
O_OH        O        0.25        0.314815        0.2861907225433526        -0.64        
O_OH        O        0.25        0.574075        0.2861907225433526        -0.64        
O_OH        O        0.5        0.018519        0.2861907225433526        -0.64        
O_OH        O        0.5        0.314815        0.2861907225433526        -0.64        
O_OH        O        0.5        0.574075        0.2861907225433526        -0.64        
O_OH        O        0.75        0.018519        0.2861907225433526        -0.64        
O_OH        O        0.75        0.314815        0.2861907225433526        -0.64        
O_OH        O        0.75        0.574075        0.2861907225433526        -0.64        
O_OH        O        0.0        0.87037        0.2861907225433526        -0.64        
O_OH        O        0.25        0.87037        0.2861907225433526        -0.64        
O_OH        O        0.5        0.87037        0.2861907225433526        -0.64        
O_OH        O        0.75        0.87037        0.2861907225433526        -0.64        
H_OH        H        0.003483401023634433        0.04169821588700425        0.0        0.44        
H_OH        H        -0.018039118870213675        0.32920630900932946        0.0        0.44        
H_OH        H        -0.012267751468384625        0.5938601561381904        0.0        0.44        
H_OH        H        0.24155624611535745        0.04031173572745452        0.0        0.44        
H_OH        H        0.23673196800929158        0.3339077285967021        0.0        0.44        
H_OH        H        0.23035694597534082        0.5860504477239369        0.0        0.44        
H_OH        H        0.507522777211823        0.040664450007896        0.0        0.44        
H_OH        H        0.48168673849595245        0.3288366520375744        0.0        0.44        
H_OH        H        0.5174397466174379        0.58922496194759        0.0        0.44        
H_OH        H        0.7366386843755566        0.03754304455916613        0.0        0.44        
H_OH        H        0.7727979466679041        0.31633005079315657        0.0        0.44        
H_OH        H        0.757706312983145        0.5961538399557473        0.0        0.44        
H_OH        H        -0.012253407841072716        0.8901645216970784        0.0        0.44        
H_OH        H        0.26026256300876793        0.8913238950469927        0.0        0.44        
H_OH        H        0.497082425065281        0.8936314093102545        0.0        0.44        
H_OH        H        0.758631788232263        0.8920849586569116        0.0        0.44        
H_OH        H        -0.007169592445533119        0.04078758444998758        0.2959074566473988        0.44        
H_OH        H        -0.01739200775072495        0.33002268977886473        0.2959074566473988        0.44        
H_OH        H        0.017967036635214664        0.5885610316426787        0.2959074566473988        0.44        
H_OH        H        0.2461465263605257        0.04163640646179735        0.2959074566473988        0.44        
H_OH        H        0.26114082450348786        0.3352907038344877        0.2959074566473988        0.44        
H_OH        H        0.24891816481321472        0.5975021398849901        0.2959074566473988        0.44        
H_OH        H        0.4776184963232395        0.023222663915827266        0.2959074566473988        0.44        
H_OH        H        0.4784895249081818        0.32271543611277903        0.2959074566473988        0.44        
H_OH        H        0.4836140836262693        0.5904178812539932        0.2959074566473988        0.44        
H_OH        H        0.738704185308484        0.03890501231759039        0.2959074566473988        0.44        
H_OH        H        0.727192273864379        0.316166048942893        0.2959074566473988        0.44        
H_OH        H        0.7527920158191718        0.5973526439122808        0.2959074566473988        0.44        
H_OH        H        -0.0036028286271478035        0.8935299682455601        0.2959074566473988        0.44        
H_OH        H        0.2654003093277816        0.8876936143084863        0.2959074566473988        0.44        
H_OH        H        0.5209834726526592        0.8796446277657156        0.2959074566473988        0.44        
H_OH        H        0.7695456811899669        0.8825121993536913        0.2959074566473988        0.44        
