data_graphite_ortho

_audit_creation_method RASPA-1.0
_audit_creation_date 2012-2-3
_audit_author_name 'David Dubbeldam'

_cell_length_a    34.44    
_cell_length_b    34.08    
_cell_length_c    28.9    
_cell_angle_alpha 90
_cell_angle_beta  90
_cell_angle_gamma 90
_cell_volume      33920.37      

_symmetry_cell_setting          triclinic
_symmetry_space_group_name_Hall 'P 1'
_symmetry_space_group_name_H-M  'P 1'
_symmetry_Int_Tables_number     1

_symmetry_equiv_pos_as_xyz 'x,y,z'

loop_
_atom_site_label
_atom_site_type_symbol
_atom_site_fract_x
_atom_site_fract_y
_atom_site_fract_z
_atom_site_charge
C1        C        0.0        0.020834        0.0        0        
C2        C        0.035714        0.083334        0.0        0        
C3        C        0.0        0.104166        0.0        0        
C4        C        0.035714        0.041666        0.0        0        
C1        C        0.0        0.145834        0.0        0        
C2        C        0.035714        0.208334        0.0        0        
C3        C        0.0        0.229166        0.0        0        
C4        C        0.035714        0.166666        0.0        0        
C1        C        0.0        0.270834        0.0        0        
C2        C        0.035714        0.333334        0.0        0        
C3        C        0.0        0.354166        0.0        0        
C4        C        0.035714        0.291666        0.0        0        
C1        C        0.0        0.395833        0.0        0        
C2        C        0.035714        0.458334        0.0        0        
C3        C        0.0        0.479166        0.0        0        
C4        C        0.035714        0.416666        0.0        0        
C1        C        0.0        0.520834        0.0        0        
C2        C        0.035714        0.583334        0.0        0        
C3        C        0.0        0.604166        0.0        0        
C4        C        0.035714        0.541666        0.0        0        
C1        C        0.0        0.645834        0.0        0        
C2        C        0.035714        0.708334        0.0        0        
C3        C        0.0        0.729166        0.0        0        
C4        C        0.035714        0.666666        0.0        0        
C1        C        0.071429        0.020834        0.0        0        
C2        C        0.107143        0.083334        0.0        0        
C3        C        0.071429        0.104166        0.0        0        
C4        C        0.107143        0.041666        0.0        0        
C1        C        0.071429        0.145834        0.0        0        
C2        C        0.107143        0.208334        0.0        0        
C3        C        0.071429        0.229166        0.0        0        
C4        C        0.107143        0.166666        0.0        0        
C1        C        0.071429        0.270834        0.0        0        
C2        C        0.107143        0.333334        0.0        0        
C3        C        0.071429        0.354166        0.0        0        
C4        C        0.107143        0.291666        0.0        0        
C1        C        0.071429        0.395833        0.0        0        
C2        C        0.107143        0.458334        0.0        0        
C3        C        0.071429        0.479166        0.0        0        
C4        C        0.107143        0.416666        0.0        0        
C1        C        0.071429        0.520834        0.0        0        
C2        C        0.107143        0.583334        0.0        0        
C3        C        0.071429        0.604166        0.0        0        
C4        C        0.107143        0.541666        0.0        0        
C1        C        0.071429        0.645834        0.0        0        
C2        C        0.107143        0.708334        0.0        0        
C3        C        0.071429        0.729166        0.0        0        
C4        C        0.107143        0.666666        0.0        0        
C1        C        0.142857        0.020834        0.0        0        
C2        C        0.178571        0.083334        0.0        0        
C3        C        0.142857        0.104166        0.0        0        
C4        C        0.178571        0.041666        0.0        0        
C1        C        0.142857        0.145834        0.0        0        
C2        C        0.178571        0.208334        0.0        0        
C3        C        0.142857        0.229166        0.0        0        
C4        C        0.178571        0.166666        0.0        0        
C1        C        0.142857        0.270834        0.0        0        
C2        C        0.178571        0.333334        0.0        0        
C3        C        0.142857        0.354166        0.0        0        
C4        C        0.178571        0.291666        0.0        0        
C1        C        0.142857        0.395833        0.0        0        
C2        C        0.178571        0.458334        0.0        0        
C3        C        0.142857        0.479166        0.0        0        
C4        C        0.178571        0.416666        0.0        0        
C1        C        0.142857        0.520834        0.0        0        
C2        C        0.178571        0.583334        0.0        0        
C3        C        0.142857        0.604166        0.0        0        
C4        C        0.178571        0.541666        0.0        0        
C1        C        0.142857        0.645834        0.0        0        
C2        C        0.178571        0.708334        0.0        0        
C3        C        0.142857        0.729166        0.0        0        
C4        C        0.178571        0.666666        0.0        0        
C1        C        0.214286        0.020834        0.0        0        
C2        C        0.25        0.083334        0.0        0        
C3        C        0.214286        0.104166        0.0        0        
C4        C        0.25        0.041666        0.0        0        
C1        C        0.214286        0.145834        0.0        0        
C2        C        0.25        0.208334        0.0        0        
C3        C        0.214286        0.229166        0.0        0        
C4        C        0.25        0.166666        0.0        0        
C1        C        0.214286        0.270834        0.0        0        
C2        C        0.25        0.333334        0.0        0        
C3        C        0.214286        0.354166        0.0        0        
C4        C        0.25        0.291666        0.0        0        
C1        C        0.214286        0.395833        0.0        0        
C2        C        0.25        0.458334        0.0        0        
C3        C        0.214286        0.479166        0.0        0        
C4        C        0.25        0.416666        0.0        0        
C1        C        0.214286        0.520834        0.0        0        
C2        C        0.25        0.583334        0.0        0        
C3        C        0.214286        0.604166        0.0        0        
C4        C        0.25        0.541666        0.0        0        
C1        C        0.214286        0.645834        0.0        0        
C2        C        0.25        0.708334        0.0        0        
C3        C        0.214286        0.729166        0.0        0        
C4        C        0.25        0.666666        0.0        0        
C1        C        0.285714        0.020834        0.0        0        
C2        C        0.321429        0.083334        0.0        0        
C3        C        0.285714        0.104166        0.0        0        
C4        C        0.321429        0.041666        0.0        0        
C1        C        0.285714        0.145834        0.0        0        
C2        C        0.321429        0.208334        0.0        0        
C3        C        0.285714        0.229166        0.0        0        
C4        C        0.321429        0.166666        0.0        0        
C1        C        0.285714        0.270834        0.0        0        
C2        C        0.321429        0.333334        0.0        0        
C3        C        0.285714        0.354166        0.0        0        
C4        C        0.321429        0.291666        0.0        0        
C1        C        0.285714        0.395833        0.0        0        
C2        C        0.321429        0.458334        0.0        0        
C3        C        0.285714        0.479166        0.0        0        
C4        C        0.321429        0.416666        0.0        0        
C1        C        0.285714        0.520834        0.0        0        
C2        C        0.321429        0.583334        0.0        0        
C3        C        0.285714        0.604166        0.0        0        
C4        C        0.321429        0.541666        0.0        0        
C1        C        0.285714        0.645834        0.0        0        
C2        C        0.321429        0.708334        0.0        0        
C3        C        0.285714        0.729166        0.0        0        
C4        C        0.321429        0.666666        0.0        0        
C1        C        0.357143        0.020834        0.0        0        
C2        C        0.392857        0.083334        0.0        0        
C3        C        0.357143        0.104166        0.0        0        
C4        C        0.392857        0.041666        0.0        0        
C1        C        0.357143        0.145834        0.0        0        
C2        C        0.392857        0.208334        0.0        0        
C3        C        0.357143        0.229166        0.0        0        
C4        C        0.392857        0.166666        0.0        0        
C1        C        0.357143        0.270834        0.0        0        
C2        C        0.392857        0.333334        0.0        0        
C3        C        0.357143        0.354166        0.0        0        
C4        C        0.392857        0.291666        0.0        0        
C1        C        0.357143        0.395833        0.0        0        
C2        C        0.392857        0.458334        0.0        0        
C3        C        0.357143        0.479166        0.0        0        
C4        C        0.392857        0.416666        0.0        0        
C1        C        0.357143        0.520834        0.0        0        
C2        C        0.392857        0.583334        0.0        0        
C3        C        0.357143        0.604166        0.0        0        
C4        C        0.392857        0.541666        0.0        0        
C1        C        0.357143        0.645834        0.0        0        
C2        C        0.392857        0.708334        0.0        0        
C3        C        0.357143        0.729166        0.0        0        
C4        C        0.392857        0.666666        0.0        0        
C1        C        0.428571        0.020834        0.0        0        
C2        C        0.464286        0.083334        0.0        0        
C3        C        0.428571        0.104166        0.0        0        
C4        C        0.464286        0.041666        0.0        0        
C1        C        0.428571        0.145834        0.0        0        
C2        C        0.464286        0.208334        0.0        0        
C3        C        0.428571        0.229166        0.0        0        
C4        C        0.464286        0.166666        0.0        0        
C1        C        0.428571        0.270834        0.0        0        
C2        C        0.464286        0.333334        0.0        0        
C3        C        0.428571        0.354166        0.0        0        
C4        C        0.464286        0.291666        0.0        0        
C1        C        0.428571        0.395833        0.0        0        
C2        C        0.464286        0.458334        0.0        0        
C3        C        0.428571        0.479166        0.0        0        
C4        C        0.464286        0.416666        0.0        0        
C1        C        0.428571        0.520834        0.0        0        
C2        C        0.464286        0.583334        0.0        0        
C3        C        0.428571        0.604166        0.0        0        
C4        C        0.464286        0.541666        0.0        0        
C1        C        0.428571        0.645834        0.0        0        
C2        C        0.464286        0.708334        0.0        0        
C3        C        0.428571        0.729166        0.0        0        
C4        C        0.464286        0.666666        0.0        0        
C1        C        0.5        0.020834        0.0        0        
C2        C        0.535714        0.083334        0.0        0        
C3        C        0.5        0.104166        0.0        0        
C4        C        0.535714        0.041666        0.0        0        
C1        C        0.5        0.145834        0.0        0        
C2        C        0.535714        0.208334        0.0        0        
C3        C        0.5        0.229166        0.0        0        
C4        C        0.535714        0.166666        0.0        0        
C1        C        0.5        0.270834        0.0        0        
C2        C        0.535714        0.333334        0.0        0        
C3        C        0.5        0.354166        0.0        0        
C4        C        0.535714        0.291666        0.0        0        
C1        C        0.5        0.395833        0.0        0        
C2        C        0.535714        0.458334        0.0        0        
C3        C        0.5        0.479166        0.0        0        
C4        C        0.535714        0.416666        0.0        0        
C1        C        0.5        0.520834        0.0        0        
C2        C        0.535714        0.583334        0.0        0        
C3        C        0.5        0.604166        0.0        0        
C4        C        0.535714        0.541666        0.0        0        
C1        C        0.5        0.645834        0.0        0        
C2        C        0.535714        0.708334        0.0        0        
C3        C        0.5        0.729166        0.0        0        
C4        C        0.535714        0.666666        0.0        0        
C1        C        0.571429        0.020834        0.0        0        
C2        C        0.607143        0.083334        0.0        0        
C3        C        0.571429        0.104166        0.0        0        
C4        C        0.607143        0.041666        0.0        0        
C1        C        0.571429        0.145834        0.0        0        
C2        C        0.607143        0.208334        0.0        0        
C3        C        0.571429        0.229166        0.0        0        
C4        C        0.607143        0.166666        0.0        0        
C1        C        0.571429        0.270834        0.0        0        
C2        C        0.607143        0.333334        0.0        0        
C3        C        0.571429        0.354166        0.0        0        
C4        C        0.607143        0.291666        0.0        0        
C1        C        0.571429        0.395833        0.0        0        
C2        C        0.607143        0.458334        0.0        0        
C3        C        0.571429        0.479166        0.0        0        
C4        C        0.607143        0.416666        0.0        0        
C1        C        0.571429        0.520834        0.0        0        
C2        C        0.607143        0.583334        0.0        0        
C3        C        0.571429        0.604166        0.0        0        
C4        C        0.607143        0.541666        0.0        0        
C1        C        0.571429        0.645834        0.0        0        
C2        C        0.607143        0.708334        0.0        0        
C3        C        0.571429        0.729166        0.0        0        
C4        C        0.607143        0.666666        0.0        0        
C1        C        0.642857        0.020834        0.0        0        
C2        C        0.678571        0.083334        0.0        0        
C3        C        0.642857        0.104166        0.0        0        
C4        C        0.678571        0.041666        0.0        0        
C1        C        0.642857        0.145834        0.0        0        
C2        C        0.678571        0.208334        0.0        0        
C3        C        0.642857        0.229166        0.0        0        
C4        C        0.678571        0.166666        0.0        0        
C1        C        0.642857        0.270834        0.0        0        
C2        C        0.678571        0.333334        0.0        0        
C3        C        0.642857        0.354166        0.0        0        
C4        C        0.678571        0.291666        0.0        0        
C1        C        0.642857        0.395833        0.0        0        
C2        C        0.678571        0.458334        0.0        0        
C3        C        0.642857        0.479166        0.0        0        
C4        C        0.678571        0.416666        0.0        0        
C1        C        0.642857        0.520834        0.0        0        
C2        C        0.678571        0.583334        0.0        0        
C3        C        0.642857        0.604166        0.0        0        
C4        C        0.678571        0.541666        0.0        0        
C1        C        0.642857        0.645834        0.0        0        
C2        C        0.678571        0.708334        0.0        0        
C3        C        0.642857        0.729166        0.0        0        
C4        C        0.678571        0.666666        0.0        0        
C1        C        0.714286        0.020834        0.0        0        
C2        C        0.75        0.083334        0.0        0        
C3        C        0.714286        0.104166        0.0        0        
C4        C        0.75        0.041666        0.0        0        
C1        C        0.714286        0.145834        0.0        0        
C2        C        0.75        0.208334        0.0        0        
C3        C        0.714286        0.229166        0.0        0        
C4        C        0.75        0.166666        0.0        0        
C1        C        0.714286        0.270834        0.0        0        
C2        C        0.75        0.333334        0.0        0        
C3        C        0.714286        0.354166        0.0        0        
C4        C        0.75        0.291666        0.0        0        
C1        C        0.714286        0.395833        0.0        0        
C2        C        0.75        0.458334        0.0        0        
C3        C        0.714286        0.479166        0.0        0        
C4        C        0.75        0.416666        0.0        0        
C1        C        0.714286        0.520834        0.0        0        
C2        C        0.75        0.583334        0.0        0        
C3        C        0.714286        0.604166        0.0        0        
C4        C        0.75        0.541666        0.0        0        
C1        C        0.714286        0.645834        0.0        0        
C2        C        0.75        0.708334        0.0        0        
C3        C        0.714286        0.729166        0.0        0        
C4        C        0.75        0.666666        0.0        0        
C1        C        0.785714        0.020834        0.0        0        
C2        C        0.821429        0.083334        0.0        0        
C3        C        0.785714        0.104166        0.0        0        
C4        C        0.821429        0.041666        0.0        0        
C1        C        0.785714        0.145834        0.0        0        
C2        C        0.821429        0.208334        0.0        0        
C3        C        0.785714        0.229166        0.0        0        
C4        C        0.821429        0.166666        0.0        0        
C1        C        0.785714        0.270834        0.0        0        
C2        C        0.821429        0.333334        0.0        0        
C3        C        0.785714        0.354166        0.0        0        
C4        C        0.821429        0.291666        0.0        0        
C1        C        0.785714        0.395833        0.0        0        
C2        C        0.821429        0.458334        0.0        0        
C3        C        0.785714        0.479166        0.0        0        
C4        C        0.821429        0.416666        0.0        0        
C1        C        0.785714        0.520834        0.0        0        
C2        C        0.821429        0.583334        0.0        0        
C3        C        0.785714        0.604166        0.0        0        
C4        C        0.821429        0.541666        0.0        0        
C1        C        0.785714        0.645834        0.0        0        
C2        C        0.821429        0.708334        0.0        0        
C3        C        0.785714        0.729166        0.0        0        
C4        C        0.821429        0.666666        0.0        0        
C1        C        0.857143        0.020834        0.0        0        
C2        C        0.892857        0.083334        0.0        0        
C3        C        0.857143        0.104166        0.0        0        
C4        C        0.892857        0.041666        0.0        0        
C1        C        0.857143        0.145834        0.0        0        
C2        C        0.892857        0.208334        0.0        0        
C3        C        0.857143        0.229166        0.0        0        
C4        C        0.892857        0.166666        0.0        0        
C1        C        0.857143        0.270834        0.0        0        
C2        C        0.892857        0.333334        0.0        0        
C3        C        0.857143        0.354166        0.0        0        
C4        C        0.892857        0.291666        0.0        0        
C1        C        0.857143        0.395833        0.0        0        
C2        C        0.892857        0.458334        0.0        0        
C3        C        0.857143        0.479166        0.0        0        
C4        C        0.892857        0.416666        0.0        0        
C1        C        0.857143        0.520834        0.0        0        
C2        C        0.892857        0.583334        0.0        0        
C3        C        0.857143        0.604166        0.0        0        
C4        C        0.892857        0.541666        0.0        0        
C1        C        0.857143        0.645834        0.0        0        
C2        C        0.892857        0.708334        0.0        0        
C3        C        0.857143        0.729166        0.0        0        
C4        C        0.892857        0.666666        0.0        0        
C1        C        0.928571        0.020834        0.0        0        
C2        C        0.964286        0.083334        0.0        0        
C3        C        0.928571        0.104166        0.0        0        
C4        C        0.964286        0.041666        0.0        0        
C1        C        0.928571        0.145834        0.0        0        
C2        C        0.964286        0.208334        0.0        0        
C3        C        0.928571        0.229166        0.0        0        
C4        C        0.964286        0.166666        0.0        0        
C1        C        0.928571        0.270834        0.0        0        
C2        C        0.964286        0.333334        0.0        0        
C3        C        0.928571        0.354166        0.0        0        
C4        C        0.964286        0.291666        0.0        0        
C1        C        0.928571        0.395833        0.0        0        
C2        C        0.964286        0.458334        0.0        0        
C3        C        0.928571        0.479166        0.0        0        
C4        C        0.964286        0.416666        0.0        0        
C1        C        0.928571        0.520834        0.0        0        
C2        C        0.964286        0.583334        0.0        0        
C3        C        0.928571        0.604166        0.0        0        
C4        C        0.964286        0.541666        0.0        0        
C1        C        0.928571        0.645834        0.0        0        
C2        C        0.964286        0.708334        0.0        0        
C3        C        0.928571        0.729166        0.0        0        
C4        C        0.964286        0.666666        0.0        0        
C1        C        0.0        0.770834        0.0        0        
C1        C        0.071429        0.770834        0.0        0        
C1        C        0.142857        0.770834        0.0        0        
C1        C        0.214286        0.770834        0.0        0        
C1        C        0.285714        0.770834        0.0        0        
C1        C        0.357143        0.770834        0.0        0        
C1        C        0.428571        0.770834        0.0        0        
C1        C        0.5        0.770834        0.0        0        
C1        C        0.571429        0.770834        0.0        0        
C1        C        0.642857        0.770834        0.0        0        
C1        C        0.714286        0.770834        0.0        0        
C1        C        0.785714        0.770834        0.0        0        
C1        C        0.857143        0.770834        0.0        0        
C1        C        0.928571        0.770834        0.0        0        
C2        C        0.035714        0.833334        0.0        0        
C2        C        0.107143        0.833334        0.0        0        
C2        C        0.178571        0.833334        0.0        0        
C2        C        0.25        0.833334        0.0        0        
C2        C        0.321429        0.833334        0.0        0        
C2        C        0.392857        0.833334        0.0        0        
C2        C        0.464286        0.833334        0.0        0        
C2        C        0.535714        0.833334        0.0        0        
C2        C        0.607143        0.833334        0.0        0        
C2        C        0.678571        0.833334        0.0        0        
C2        C        0.75        0.833334        0.0        0        
C2        C        0.821429        0.833334        0.0        0        
C2        C        0.892857        0.833334        0.0        0        
C2        C        0.964286        0.833334        0.0        0        
C3        C        0.0        0.854167        0.0        0        
C3        C        0.071429        0.854167        0.0        0        
C3        C        0.142857        0.854167        0.0        0        
C3        C        0.214286        0.854167        0.0        0        
C3        C        0.285714        0.854167        0.0        0        
C3        C        0.357143        0.854167        0.0        0        
C3        C        0.428571        0.854167        0.0        0        
C3        C        0.5        0.854167        0.0        0        
C3        C        0.571429        0.854167        0.0        0        
C3        C        0.642857        0.854167        0.0        0        
C3        C        0.714286        0.854167        0.0        0        
C3        C        0.785714        0.854167        0.0        0        
C3        C        0.857143        0.854167        0.0        0        
C3        C        0.928571        0.854167        0.0        0        
C4        C        0.035714        0.791666        0.0        0        
C4        C        0.107143        0.791666        0.0        0        
C4        C        0.178571        0.791666        0.0        0        
C4        C        0.25        0.791666        0.0        0        
C4        C        0.321429        0.791666        0.0        0        
C4        C        0.392857        0.791666        0.0        0        
C4        C        0.464286        0.791666        0.0        0        
C4        C        0.535714        0.791666        0.0        0        
C4        C        0.607143        0.791666        0.0        0        
C4        C        0.678571        0.791666        0.0        0        
C4        C        0.75        0.791666        0.0        0        
C4        C        0.821429        0.791666        0.0        0        
C4        C        0.892857        0.791666        0.0        0        
C4        C        0.964286        0.791666        0.0        0        
C1        C        0.0        0.895834        0.0        0        
C1        C        0.071429        0.895834        0.0        0        
C1        C        0.142857        0.895834        0.0        0        
C1        C        0.214286        0.895834        0.0        0        
C1        C        0.285714        0.895834        0.0        0        
C1        C        0.357143        0.895834        0.0        0        
C1        C        0.428571        0.895834        0.0        0        
C1        C        0.5        0.895834        0.0        0        
C1        C        0.571429        0.895834        0.0        0        
C1        C        0.642857        0.895834        0.0        0        
C1        C        0.714286        0.895834        0.0        0        
C1        C        0.785714        0.895834        0.0        0        
C1        C        0.857143        0.895834        0.0        0        
C1        C        0.928571        0.895834        0.0        0        
C2        C        0.035714        0.958334        0.0        0        
C2        C        0.107143        0.958334        0.0        0        
C2        C        0.178571        0.958334        0.0        0        
C2        C        0.25        0.958334        0.0        0        
C2        C        0.321429        0.958334        0.0        0        
C2        C        0.392857        0.958334        0.0        0        
C2        C        0.464286        0.958334        0.0        0        
C2        C        0.535714        0.958334        0.0        0        
C2        C        0.607143        0.958334        0.0        0        
C2        C        0.678571        0.958334        0.0        0        
C2        C        0.75        0.958334        0.0        0        
C2        C        0.821429        0.958334        0.0        0        
C2        C        0.892857        0.958334        0.0        0        
C2        C        0.964286        0.958334        0.0        0        
C3        C        0.0        0.979167        0.0        0        
C3        C        0.071429        0.979167        0.0        0        
C3        C        0.142857        0.979167        0.0        0        
C3        C        0.214286        0.979167        0.0        0        
C3        C        0.285714        0.979167        0.0        0        
C3        C        0.357143        0.979167        0.0        0        
C3        C        0.428571        0.979167        0.0        0        
C3        C        0.5        0.979167        0.0        0        
C3        C        0.571429        0.979167        0.0        0        
C3        C        0.642857        0.979167        0.0        0        
C3        C        0.714286        0.979167        0.0        0        
C3        C        0.785714        0.979167        0.0        0        
C3        C        0.857143        0.979167        0.0        0        
C3        C        0.928571        0.979167        0.0        0        
C4        C        0.035714        0.916666        0.0        0        
C4        C        0.107143        0.916666        0.0        0        
C4        C        0.178571        0.916666        0.0        0        
C4        C        0.25        0.916666        0.0        0        
C4        C        0.321429        0.916666        0.0        0        
C4        C        0.392857        0.916666        0.0        0        
C4        C        0.464286        0.916666        0.0        0        
C4        C        0.535714        0.916666        0.0        0        
C4        C        0.607143        0.916666        0.0        0        
C4        C        0.678571        0.916666        0.0        0        
C4        C        0.75        0.916666        0.0        0        
C4        C        0.821429        0.916666        0.0        0        
C4        C        0.892857        0.916666        0.0        0        
C4        C        0.964286        0.916666        0.0        0        
C1        C        0.0        0.020834        0.115917        0        
C2        C        0.035714        0.083334        0.115917        0        
C3        C        0.0        0.104166        0.115917        0        
C4        C        0.035714        0.041666        0.115917        0        
C1        C        0.0        0.145834        0.115917        0        
C2        C        0.035714        0.208334        0.115917        0        
C3        C        0.0        0.229166        0.115917        0        
C4        C        0.035714        0.166666        0.115917        0        
C1        C        0.0        0.270834        0.115917        0        
C2        C        0.035714        0.333334        0.115917        0        
C3        C        0.0        0.354166        0.115917        0        
C4        C        0.035714        0.291666        0.115917        0        
C1        C        0.0        0.395833        0.115917        0        
C2        C        0.035714        0.458334        0.115917        0        
C3        C        0.0        0.479166        0.115917        0        
C4        C        0.035714        0.416666        0.115917        0        
C1        C        0.0        0.520834        0.115917        0        
C2        C        0.035714        0.583334        0.115917        0        
C3        C        0.0        0.604166        0.115917        0        
C4        C        0.035714        0.541666        0.115917        0        
C1        C        0.0        0.645834        0.115917        0        
C2        C        0.035714        0.708334        0.115917        0        
C3        C        0.0        0.729166        0.115917        0        
C4        C        0.035714        0.666666        0.115917        0        
C1        C        0.071429        0.020834        0.115917        0        
C2        C        0.107143        0.083334        0.115917        0        
C3        C        0.071429        0.104166        0.115917        0        
C4        C        0.107143        0.041666        0.115917        0        
C1        C        0.071429        0.145834        0.115917        0        
C2        C        0.107143        0.208334        0.115917        0        
C3        C        0.071429        0.229166        0.115917        0        
C4        C        0.107143        0.166666        0.115917        0        
C1        C        0.071429        0.270834        0.115917        0        
C2        C        0.107143        0.333334        0.115917        0        
C3        C        0.071429        0.354166        0.115917        0        
C4        C        0.107143        0.291666        0.115917        0        
C1        C        0.071429        0.395833        0.115917        0        
C2        C        0.107143        0.458334        0.115917        0        
C3        C        0.071429        0.479166        0.115917        0        
C4        C        0.107143        0.416666        0.115917        0        
C1        C        0.071429        0.520834        0.115917        0        
C2        C        0.107143        0.583334        0.115917        0        
C3        C        0.071429        0.604166        0.115917        0        
C4        C        0.107143        0.541666        0.115917        0        
C1        C        0.071429        0.645834        0.115917        0        
C2        C        0.107143        0.708334        0.115917        0        
C3        C        0.071429        0.729166        0.115917        0        
C4        C        0.107143        0.666666        0.115917        0        
C1        C        0.142857        0.020834        0.115917        0        
C2        C        0.178571        0.083334        0.115917        0        
C3        C        0.142857        0.104166        0.115917        0        
C4        C        0.178571        0.041666        0.115917        0        
C1        C        0.142857        0.145834        0.115917        0        
C2        C        0.178571        0.208334        0.115917        0        
C3        C        0.142857        0.229166        0.115917        0        
C4        C        0.178571        0.166666        0.115917        0        
C1        C        0.142857        0.270834        0.115917        0        
C2        C        0.178571        0.333334        0.115917        0        
C3        C        0.142857        0.354166        0.115917        0        
C4        C        0.178571        0.291666        0.115917        0        
C1        C        0.142857        0.395833        0.115917        0        
C2        C        0.178571        0.458334        0.115917        0        
C3        C        0.142857        0.479166        0.115917        0        
C4        C        0.178571        0.416666        0.115917        0        
C1        C        0.142857        0.520834        0.115917        0        
C2        C        0.178571        0.583334        0.115917        0        
C3        C        0.142857        0.604166        0.115917        0        
C4        C        0.178571        0.541666        0.115917        0        
C1        C        0.142857        0.645834        0.115917        0        
C2        C        0.178571        0.708334        0.115917        0        
C3        C        0.142857        0.729166        0.115917        0        
C4        C        0.178571        0.666666        0.115917        0        
C1        C        0.214286        0.020834        0.115917        0        
C2        C        0.25        0.083334        0.115917        0        
C3        C        0.214286        0.104166        0.115917        0        
C4        C        0.25        0.041666        0.115917        0        
C1        C        0.214286        0.145834        0.115917        0        
C2        C        0.25        0.208334        0.115917        0        
C3        C        0.214286        0.229166        0.115917        0        
C4        C        0.25        0.166666        0.115917        0        
C1        C        0.214286        0.270834        0.115917        0        
C2        C        0.25        0.333334        0.115917        0        
C3        C        0.214286        0.354166        0.115917        0        
C4        C        0.25        0.291666        0.115917        0        
C1        C        0.214286        0.395833        0.115917        0        
C2        C        0.25        0.458334        0.115917        0        
C3        C        0.214286        0.479166        0.115917        0        
C4        C        0.25        0.416666        0.115917        0        
C1        C        0.214286        0.520834        0.115917        0        
C2        C        0.25        0.583334        0.115917        0        
C3        C        0.214286        0.604166        0.115917        0        
C4        C        0.25        0.541666        0.115917        0        
C1        C        0.214286        0.645834        0.115917        0        
C2        C        0.25        0.708334        0.115917        0        
C3        C        0.214286        0.729166        0.115917        0        
C4        C        0.25        0.666666        0.115917        0        
C1        C        0.285714        0.020834        0.115917        0        
C2        C        0.321429        0.083334        0.115917        0        
C3        C        0.285714        0.104166        0.115917        0        
C4        C        0.321429        0.041666        0.115917        0        
C1        C        0.285714        0.145834        0.115917        0        
C2        C        0.321429        0.208334        0.115917        0        
C3        C        0.285714        0.229166        0.115917        0        
C4        C        0.321429        0.166666        0.115917        0        
C1        C        0.285714        0.270834        0.115917        0        
C2        C        0.321429        0.333334        0.115917        0        
C3        C        0.285714        0.354166        0.115917        0        
C4        C        0.321429        0.291666        0.115917        0        
C1        C        0.285714        0.395833        0.115917        0        
C2        C        0.321429        0.458334        0.115917        0        
C3        C        0.285714        0.479166        0.115917        0        
C4        C        0.321429        0.416666        0.115917        0        
C1        C        0.285714        0.520834        0.115917        0        
C2        C        0.321429        0.583334        0.115917        0        
C3        C        0.285714        0.604166        0.115917        0        
C4        C        0.321429        0.541666        0.115917        0        
C1        C        0.285714        0.645834        0.115917        0        
C2        C        0.321429        0.708334        0.115917        0        
C3        C        0.285714        0.729166        0.115917        0        
C4        C        0.321429        0.666666        0.115917        0        
C1        C        0.357143        0.020834        0.115917        0        
C2        C        0.392857        0.083334        0.115917        0        
C3        C        0.357143        0.104166        0.115917        0        
C4        C        0.392857        0.041666        0.115917        0        
C1        C        0.357143        0.145834        0.115917        0        
C2        C        0.392857        0.208334        0.115917        0        
C3        C        0.357143        0.229166        0.115917        0        
C4        C        0.392857        0.166666        0.115917        0        
C1        C        0.357143        0.270834        0.115917        0        
C2        C        0.392857        0.333334        0.115917        0        
C3        C        0.357143        0.354166        0.115917        0        
C4        C        0.392857        0.291666        0.115917        0        
C1        C        0.357143        0.395833        0.115917        0        
C2        C        0.392857        0.458334        0.115917        0        
C3        C        0.357143        0.479166        0.115917        0        
C4        C        0.392857        0.416666        0.115917        0        
C1        C        0.357143        0.520834        0.115917        0        
C2        C        0.392857        0.583334        0.115917        0        
C3        C        0.357143        0.604166        0.115917        0        
C4        C        0.392857        0.541666        0.115917        0        
C1        C        0.357143        0.645834        0.115917        0        
C2        C        0.392857        0.708334        0.115917        0        
C3        C        0.357143        0.729166        0.115917        0        
C4        C        0.392857        0.666666        0.115917        0        
C1        C        0.428571        0.020834        0.115917        0        
C2        C        0.464286        0.083334        0.115917        0        
C3        C        0.428571        0.104166        0.115917        0        
C4        C        0.464286        0.041666        0.115917        0        
C1        C        0.428571        0.145834        0.115917        0        
C2        C        0.464286        0.208334        0.115917        0        
C3        C        0.428571        0.229166        0.115917        0        
C4        C        0.464286        0.166666        0.115917        0        
C1        C        0.428571        0.270834        0.115917        0        
C2        C        0.464286        0.333334        0.115917        0        
C3        C        0.428571        0.354166        0.115917        0        
C4        C        0.464286        0.291666        0.115917        0        
C1        C        0.428571        0.395833        0.115917        0        
C2        C        0.464286        0.458334        0.115917        0        
C3        C        0.428571        0.479166        0.115917        0        
C4        C        0.464286        0.416666        0.115917        0        
C1        C        0.428571        0.520834        0.115917        0        
C2        C        0.464286        0.583334        0.115917        0        
C3        C        0.428571        0.604166        0.115917        0        
C4        C        0.464286        0.541666        0.115917        0        
C1        C        0.428571        0.645834        0.115917        0        
C2        C        0.464286        0.708334        0.115917        0        
C3        C        0.428571        0.729166        0.115917        0        
C4        C        0.464286        0.666666        0.115917        0        
C1        C        0.5        0.020834        0.115917        0        
C2        C        0.535714        0.083334        0.115917        0        
C3        C        0.5        0.104166        0.115917        0        
C4        C        0.535714        0.041666        0.115917        0        
C1        C        0.5        0.145834        0.115917        0        
C2        C        0.535714        0.208334        0.115917        0        
C3        C        0.5        0.229166        0.115917        0        
C4        C        0.535714        0.166666        0.115917        0        
C1        C        0.5        0.270834        0.115917        0        
C2        C        0.535714        0.333334        0.115917        0        
C3        C        0.5        0.354166        0.115917        0        
C4        C        0.535714        0.291666        0.115917        0        
C1        C        0.5        0.395833        0.115917        0        
C2        C        0.535714        0.458334        0.115917        0        
C3        C        0.5        0.479166        0.115917        0        
C4        C        0.535714        0.416666        0.115917        0        
C1        C        0.5        0.520834        0.115917        0        
C2        C        0.535714        0.583334        0.115917        0        
C3        C        0.5        0.604166        0.115917        0        
C4        C        0.535714        0.541666        0.115917        0        
C1        C        0.5        0.645834        0.115917        0        
C2        C        0.535714        0.708334        0.115917        0        
C3        C        0.5        0.729166        0.115917        0        
C4        C        0.535714        0.666666        0.115917        0        
C1        C        0.571429        0.020834        0.115917        0        
C2        C        0.607143        0.083334        0.115917        0        
C3        C        0.571429        0.104166        0.115917        0        
C4        C        0.607143        0.041666        0.115917        0        
C1        C        0.571429        0.145834        0.115917        0        
C2        C        0.607143        0.208334        0.115917        0        
C3        C        0.571429        0.229166        0.115917        0        
C4        C        0.607143        0.166666        0.115917        0        
C1        C        0.571429        0.270834        0.115917        0        
C2        C        0.607143        0.333334        0.115917        0        
C3        C        0.571429        0.354166        0.115917        0        
C4        C        0.607143        0.291666        0.115917        0        
C1        C        0.571429        0.395833        0.115917        0        
C2        C        0.607143        0.458334        0.115917        0        
C3        C        0.571429        0.479166        0.115917        0        
C4        C        0.607143        0.416666        0.115917        0        
C1        C        0.571429        0.520834        0.115917        0        
C2        C        0.607143        0.583334        0.115917        0        
C3        C        0.571429        0.604166        0.115917        0        
C4        C        0.607143        0.541666        0.115917        0        
C1        C        0.571429        0.645834        0.115917        0        
C2        C        0.607143        0.708334        0.115917        0        
C3        C        0.571429        0.729166        0.115917        0        
C4        C        0.607143        0.666666        0.115917        0        
C1        C        0.642857        0.020834        0.115917        0        
C2        C        0.678571        0.083334        0.115917        0        
C3        C        0.642857        0.104166        0.115917        0        
C4        C        0.678571        0.041666        0.115917        0        
C1        C        0.642857        0.145834        0.115917        0        
C2        C        0.678571        0.208334        0.115917        0        
C3        C        0.642857        0.229166        0.115917        0        
C4        C        0.678571        0.166666        0.115917        0        
C1        C        0.642857        0.270834        0.115917        0        
C2        C        0.678571        0.333334        0.115917        0        
C3        C        0.642857        0.354166        0.115917        0        
C4        C        0.678571        0.291666        0.115917        0        
C1        C        0.642857        0.395833        0.115917        0        
C2        C        0.678571        0.458334        0.115917        0        
C3        C        0.642857        0.479166        0.115917        0        
C4        C        0.678571        0.416666        0.115917        0        
C1        C        0.642857        0.520834        0.115917        0        
C2        C        0.678571        0.583334        0.115917        0        
C3        C        0.642857        0.604166        0.115917        0        
C4        C        0.678571        0.541666        0.115917        0        
C1        C        0.642857        0.645834        0.115917        0        
C2        C        0.678571        0.708334        0.115917        0        
C3        C        0.642857        0.729166        0.115917        0        
C4        C        0.678571        0.666666        0.115917        0        
C1        C        0.714286        0.020834        0.115917        0        
C2        C        0.75        0.083334        0.115917        0        
C3        C        0.714286        0.104166        0.115917        0        
C4        C        0.75        0.041666        0.115917        0        
C1        C        0.714286        0.145834        0.115917        0        
C2        C        0.75        0.208334        0.115917        0        
C3        C        0.714286        0.229166        0.115917        0        
C4        C        0.75        0.166666        0.115917        0        
C1        C        0.714286        0.270834        0.115917        0        
C2        C        0.75        0.333334        0.115917        0        
C3        C        0.714286        0.354166        0.115917        0        
C4        C        0.75        0.291666        0.115917        0        
C1        C        0.714286        0.395833        0.115917        0        
C2        C        0.75        0.458334        0.115917        0        
C3        C        0.714286        0.479166        0.115917        0        
C4        C        0.75        0.416666        0.115917        0        
C1        C        0.714286        0.520834        0.115917        0        
C2        C        0.75        0.583334        0.115917        0        
C3        C        0.714286        0.604166        0.115917        0        
C4        C        0.75        0.541666        0.115917        0        
C1        C        0.714286        0.645834        0.115917        0        
C2        C        0.75        0.708334        0.115917        0        
C3        C        0.714286        0.729166        0.115917        0        
C4        C        0.75        0.666666        0.115917        0        
C1        C        0.785714        0.020834        0.115917        0        
C2        C        0.821429        0.083334        0.115917        0        
C3        C        0.785714        0.104166        0.115917        0        
C4        C        0.821429        0.041666        0.115917        0        
C1        C        0.785714        0.145834        0.115917        0        
C2        C        0.821429        0.208334        0.115917        0        
C3        C        0.785714        0.229166        0.115917        0        
C4        C        0.821429        0.166666        0.115917        0        
C1        C        0.785714        0.270834        0.115917        0        
C2        C        0.821429        0.333334        0.115917        0        
C3        C        0.785714        0.354166        0.115917        0        
C4        C        0.821429        0.291666        0.115917        0        
C1        C        0.785714        0.395833        0.115917        0        
C2        C        0.821429        0.458334        0.115917        0        
C3        C        0.785714        0.479166        0.115917        0        
C4        C        0.821429        0.416666        0.115917        0        
C1        C        0.785714        0.520834        0.115917        0        
C2        C        0.821429        0.583334        0.115917        0        
C3        C        0.785714        0.604166        0.115917        0        
C4        C        0.821429        0.541666        0.115917        0        
C1        C        0.785714        0.645834        0.115917        0        
C2        C        0.821429        0.708334        0.115917        0        
C3        C        0.785714        0.729166        0.115917        0        
C4        C        0.821429        0.666666        0.115917        0        
C1        C        0.857143        0.020834        0.115917        0        
C2        C        0.892857        0.083334        0.115917        0        
C3        C        0.857143        0.104166        0.115917        0        
C4        C        0.892857        0.041666        0.115917        0        
C1        C        0.857143        0.145834        0.115917        0        
C2        C        0.892857        0.208334        0.115917        0        
C3        C        0.857143        0.229166        0.115917        0        
C4        C        0.892857        0.166666        0.115917        0        
C1        C        0.857143        0.270834        0.115917        0        
C2        C        0.892857        0.333334        0.115917        0        
C3        C        0.857143        0.354166        0.115917        0        
C4        C        0.892857        0.291666        0.115917        0        
C1        C        0.857143        0.395833        0.115917        0        
C2        C        0.892857        0.458334        0.115917        0        
C3        C        0.857143        0.479166        0.115917        0        
C4        C        0.892857        0.416666        0.115917        0        
C1        C        0.857143        0.520834        0.115917        0        
C2        C        0.892857        0.583334        0.115917        0        
C3        C        0.857143        0.604166        0.115917        0        
C4        C        0.892857        0.541666        0.115917        0        
C1        C        0.857143        0.645834        0.115917        0        
C2        C        0.892857        0.708334        0.115917        0        
C3        C        0.857143        0.729166        0.115917        0        
C4        C        0.892857        0.666666        0.115917        0        
C1        C        0.928571        0.020834        0.115917        0        
C2        C        0.964286        0.083334        0.115917        0        
C3        C        0.928571        0.104166        0.115917        0        
C4        C        0.964286        0.041666        0.115917        0        
C1        C        0.928571        0.145834        0.115917        0        
C2        C        0.964286        0.208334        0.115917        0        
C3        C        0.928571        0.229166        0.115917        0        
C4        C        0.964286        0.166666        0.115917        0        
C1        C        0.928571        0.270834        0.115917        0        
C2        C        0.964286        0.333334        0.115917        0        
C3        C        0.928571        0.354166        0.115917        0        
C4        C        0.964286        0.291666        0.115917        0        
C1        C        0.928571        0.395833        0.115917        0        
C2        C        0.964286        0.458334        0.115917        0        
C3        C        0.928571        0.479166        0.115917        0        
C4        C        0.964286        0.416666        0.115917        0        
C1        C        0.928571        0.520834        0.115917        0        
C2        C        0.964286        0.583334        0.115917        0        
C3        C        0.928571        0.604166        0.115917        0        
C4        C        0.964286        0.541666        0.115917        0        
C1        C        0.928571        0.645834        0.115917        0        
C2        C        0.964286        0.708334        0.115917        0        
C3        C        0.928571        0.729166        0.115917        0        
C4        C        0.964286        0.666666        0.115917        0        
C1        C        0.0        0.770834        0.115917        0        
C1        C        0.071429        0.770834        0.115917        0        
C1        C        0.142857        0.770834        0.115917        0        
C1        C        0.214286        0.770834        0.115917        0        
C1        C        0.285714        0.770834        0.115917        0        
C1        C        0.357143        0.770834        0.115917        0        
C1        C        0.428571        0.770834        0.115917        0        
C1        C        0.5        0.770834        0.115917        0        
C1        C        0.571429        0.770834        0.115917        0        
C1        C        0.642857        0.770834        0.115917        0        
C1        C        0.714286        0.770834        0.115917        0        
C1        C        0.785714        0.770834        0.115917        0        
C1        C        0.857143        0.770834        0.115917        0        
C1        C        0.928571        0.770834        0.115917        0        
C2        C        0.035714        0.833334        0.115917        0        
C2        C        0.107143        0.833334        0.115917        0        
C2        C        0.178571        0.833334        0.115917        0        
C2        C        0.25        0.833334        0.115917        0        
C2        C        0.321429        0.833334        0.115917        0        
C2        C        0.392857        0.833334        0.115917        0        
C2        C        0.464286        0.833334        0.115917        0        
C2        C        0.535714        0.833334        0.115917        0        
C2        C        0.607143        0.833334        0.115917        0        
C2        C        0.678571        0.833334        0.115917        0        
C2        C        0.75        0.833334        0.115917        0        
C2        C        0.821429        0.833334        0.115917        0        
C2        C        0.892857        0.833334        0.115917        0        
C2        C        0.964286        0.833334        0.115917        0        
C3        C        0.0        0.854167        0.115917        0        
C3        C        0.071429        0.854167        0.115917        0        
C3        C        0.142857        0.854167        0.115917        0        
C3        C        0.214286        0.854167        0.115917        0        
C3        C        0.285714        0.854167        0.115917        0        
C3        C        0.357143        0.854167        0.115917        0        
C3        C        0.428571        0.854167        0.115917        0        
C3        C        0.5        0.854167        0.115917        0        
C3        C        0.571429        0.854167        0.115917        0        
C3        C        0.642857        0.854167        0.115917        0        
C3        C        0.714286        0.854167        0.115917        0        
C3        C        0.785714        0.854167        0.115917        0        
C3        C        0.857143        0.854167        0.115917        0        
C3        C        0.928571        0.854167        0.115917        0        
C4        C        0.035714        0.791666        0.115917        0        
C4        C        0.107143        0.791666        0.115917        0        
C4        C        0.178571        0.791666        0.115917        0        
C4        C        0.25        0.791666        0.115917        0        
C4        C        0.321429        0.791666        0.115917        0        
C4        C        0.392857        0.791666        0.115917        0        
C4        C        0.464286        0.791666        0.115917        0        
C4        C        0.535714        0.791666        0.115917        0        
C4        C        0.607143        0.791666        0.115917        0        
C4        C        0.678571        0.791666        0.115917        0        
C4        C        0.75        0.791666        0.115917        0        
C4        C        0.821429        0.791666        0.115917        0        
C4        C        0.892857        0.791666        0.115917        0        
C4        C        0.964286        0.791666        0.115917        0        
C1        C        0.0        0.895834        0.115917        0        
C1        C        0.071429        0.895834        0.115917        0        
C1        C        0.142857        0.895834        0.115917        0        
C1        C        0.214286        0.895834        0.115917        0        
C1        C        0.285714        0.895834        0.115917        0        
C1        C        0.357143        0.895834        0.115917        0        
C1        C        0.428571        0.895834        0.115917        0        
C1        C        0.5        0.895834        0.115917        0        
C1        C        0.571429        0.895834        0.115917        0        
C1        C        0.642857        0.895834        0.115917        0        
C1        C        0.714286        0.895834        0.115917        0        
C1        C        0.785714        0.895834        0.115917        0        
C1        C        0.857143        0.895834        0.115917        0        
C1        C        0.928571        0.895834        0.115917        0        
C2        C        0.035714        0.958334        0.115917        0        
C2        C        0.107143        0.958334        0.115917        0        
C2        C        0.178571        0.958334        0.115917        0        
C2        C        0.25        0.958334        0.115917        0        
C2        C        0.321429        0.958334        0.115917        0        
C2        C        0.392857        0.958334        0.115917        0        
C2        C        0.464286        0.958334        0.115917        0        
C2        C        0.535714        0.958334        0.115917        0        
C2        C        0.607143        0.958334        0.115917        0        
C2        C        0.678571        0.958334        0.115917        0        
C2        C        0.75        0.958334        0.115917        0        
C2        C        0.821429        0.958334        0.115917        0        
C2        C        0.892857        0.958334        0.115917        0        
C2        C        0.964286        0.958334        0.115917        0        
C3        C        0.0        0.979167        0.115917        0        
C3        C        0.071429        0.979167        0.115917        0        
C3        C        0.142857        0.979167        0.115917        0        
C3        C        0.214286        0.979167        0.115917        0        
C3        C        0.285714        0.979167        0.115917        0        
C3        C        0.357143        0.979167        0.115917        0        
C3        C        0.428571        0.979167        0.115917        0        
C3        C        0.5        0.979167        0.115917        0        
C3        C        0.571429        0.979167        0.115917        0        
C3        C        0.642857        0.979167        0.115917        0        
C3        C        0.714286        0.979167        0.115917        0        
C3        C        0.785714        0.979167        0.115917        0        
C3        C        0.857143        0.979167        0.115917        0        
C3        C        0.928571        0.979167        0.115917        0        
C4        C        0.035714        0.916666        0.115917        0        
C4        C        0.107143        0.916666        0.115917        0        
C4        C        0.178571        0.916666        0.115917        0        
C4        C        0.25        0.916666        0.115917        0        
C4        C        0.321429        0.916666        0.115917        0        
C4        C        0.392857        0.916666        0.115917        0        
C4        C        0.464286        0.916666        0.115917        0        
C4        C        0.535714        0.916666        0.115917        0        
C4        C        0.607143        0.916666        0.115917        0        
C4        C        0.678571        0.916666        0.115917        0        
C4        C        0.75        0.916666        0.115917        0        
C4        C        0.821429        0.916666        0.115917        0        
C4        C        0.892857        0.916666        0.115917        0        
C4        C        0.964286        0.916666        0.115917        0        
C1        C        0.0        0.020834        0.231834        0        
C2        C        0.035714        0.083334        0.231834        0        
C3        C        0.0        0.104166        0.231834        0        
C4        C        0.035714        0.041666        0.231834        0        
C1        C        0.0        0.145834        0.231834        0        
C2        C        0.035714        0.208334        0.231834        0        
C3        C        0.0        0.229166        0.231834        0        
C4        C        0.035714        0.166666        0.231834        0        
C1        C        0.0        0.270834        0.231834        0        
C2        C        0.035714        0.333334        0.231834        0        
C3        C        0.0        0.354166        0.231834        0        
C4        C        0.035714        0.291666        0.231834        0        
C1        C        0.0        0.395833        0.231834        0        
C2        C        0.035714        0.458334        0.231834        0        
C3        C        0.0        0.479166        0.231834        0        
C4        C        0.035714        0.416666        0.231834        0        
C1        C        0.0        0.520834        0.231834        0        
C2        C        0.035714        0.583334        0.231834        0        
C3        C        0.0        0.604166        0.231834        0        
C4        C        0.035714        0.541666        0.231834        0        
C1        C        0.0        0.645834        0.231834        0        
C2        C        0.035714        0.708334        0.231834        0        
C3        C        0.0        0.729166        0.231834        0        
C4        C        0.035714        0.666666        0.231834        0        
C_FG        C        0.071429        0.020834        0.231834        0.2        
C2        C        0.107143        0.083334        0.231834        0        
C3        C        0.071429        0.104166        0.231834        0        
C4        C        0.107143        0.041666        0.231834        0        
C_FG        C        0.071429        0.145834        0.231834        0.2        
C2        C        0.107143        0.208334        0.231834        0        
C3        C        0.071429        0.229166        0.231834        0        
C4        C        0.107143        0.166666        0.231834        0        
C_FG        C        0.071429        0.270834        0.231834        0.2        
C2        C        0.107143        0.333334        0.231834        0        
C3        C        0.071429        0.354166        0.231834        0        
C4        C        0.107143        0.291666        0.231834        0        
C_FG        C        0.071429        0.395833        0.231834        0.2        
C2        C        0.107143        0.458334        0.231834        0        
C3        C        0.071429        0.479166        0.231834        0        
C4        C        0.107143        0.416666        0.231834        0        
C_FG        C        0.071429        0.520834        0.231834        0.2        
C2        C        0.107143        0.583334        0.231834        0        
C3        C        0.071429        0.604166        0.231834        0        
C4        C        0.107143        0.541666        0.231834        0        
C_FG        C        0.071429        0.645834        0.231834        0.2        
C2        C        0.107143        0.708334        0.231834        0        
C3        C        0.071429        0.729166        0.231834        0        
C4        C        0.107143        0.666666        0.231834        0        
C1        C        0.142857        0.020834        0.231834        0        
C2        C        0.178571        0.083334        0.231834        0        
C3        C        0.142857        0.104166        0.231834        0        
C4        C        0.178571        0.041666        0.231834        0        
C1        C        0.142857        0.145834        0.231834        0        
C2        C        0.178571        0.208334        0.231834        0        
C3        C        0.142857        0.229166        0.231834        0        
C4        C        0.178571        0.166666        0.231834        0        
C1        C        0.142857        0.270834        0.231834        0        
C2        C        0.178571        0.333334        0.231834        0        
C3        C        0.142857        0.354166        0.231834        0        
C4        C        0.178571        0.291666        0.231834        0        
C1        C        0.142857        0.395833        0.231834        0        
C2        C        0.178571        0.458334        0.231834        0        
C3        C        0.142857        0.479166        0.231834        0        
C4        C        0.178571        0.416666        0.231834        0        
C1        C        0.142857        0.520834        0.231834        0        
C2        C        0.178571        0.583334        0.231834        0        
C3        C        0.142857        0.604166        0.231834        0        
C4        C        0.178571        0.541666        0.231834        0        
C1        C        0.142857        0.645834        0.231834        0        
C2        C        0.178571        0.708334        0.231834        0        
C3        C        0.142857        0.729166        0.231834        0        
C4        C        0.178571        0.666666        0.231834        0        
C_FG        C        0.214286        0.020834        0.231834        0.2        
C2        C        0.25        0.083334        0.231834        0        
C3        C        0.214286        0.104166        0.231834        0        
C4        C        0.25        0.041666        0.231834        0        
C_FG        C        0.214286        0.145834        0.231834        0.2        
C2        C        0.25        0.208334        0.231834        0        
C3        C        0.214286        0.229166        0.231834        0        
C4        C        0.25        0.166666        0.231834        0        
C_FG        C        0.214286        0.270834        0.231834        0.2        
C2        C        0.25        0.333334        0.231834        0        
C3        C        0.214286        0.354166        0.231834        0        
C4        C        0.25        0.291666        0.231834        0        
C_FG        C        0.214286        0.395833        0.231834        0.2        
C2        C        0.25        0.458334        0.231834        0        
C3        C        0.214286        0.479166        0.231834        0        
C4        C        0.25        0.416666        0.231834        0        
C_FG        C        0.214286        0.520834        0.231834        0.2        
C2        C        0.25        0.583334        0.231834        0        
C3        C        0.214286        0.604166        0.231834        0        
C4        C        0.25        0.541666        0.231834        0        
C_FG        C        0.214286        0.645834        0.231834        0.2        
C2        C        0.25        0.708334        0.231834        0        
C3        C        0.214286        0.729166        0.231834        0        
C4        C        0.25        0.666666        0.231834        0        
C1        C        0.285714        0.020834        0.231834        0        
C2        C        0.321429        0.083334        0.231834        0        
C3        C        0.285714        0.104166        0.231834        0        
C4        C        0.321429        0.041666        0.231834        0        
C1        C        0.285714        0.145834        0.231834        0        
C2        C        0.321429        0.208334        0.231834        0        
C3        C        0.285714        0.229166        0.231834        0        
C4        C        0.321429        0.166666        0.231834        0        
C1        C        0.285714        0.270834        0.231834        0        
C2        C        0.321429        0.333334        0.231834        0        
C3        C        0.285714        0.354166        0.231834        0        
C4        C        0.321429        0.291666        0.231834        0        
C1        C        0.285714        0.395833        0.231834        0        
C2        C        0.321429        0.458334        0.231834        0        
C3        C        0.285714        0.479166        0.231834        0        
C4        C        0.321429        0.416666        0.231834        0        
C1        C        0.285714        0.520834        0.231834        0        
C2        C        0.321429        0.583334        0.231834        0        
C3        C        0.285714        0.604166        0.231834        0        
C4        C        0.321429        0.541666        0.231834        0        
C1        C        0.285714        0.645834        0.231834        0        
C2        C        0.321429        0.708334        0.231834        0        
C3        C        0.285714        0.729166        0.231834        0        
C4        C        0.321429        0.666666        0.231834        0        
C1        C        0.357143        0.020834        0.231834        0        
C2        C        0.392857        0.083334        0.231834        0        
C3        C        0.357143        0.104166        0.231834        0        
C4        C        0.392857        0.041666        0.231834        0        
C1        C        0.357143        0.145834        0.231834        0        
C2        C        0.392857        0.208334        0.231834        0        
C3        C        0.357143        0.229166        0.231834        0        
C4        C        0.392857        0.166666        0.231834        0        
C1        C        0.357143        0.270834        0.231834        0        
C2        C        0.392857        0.333334        0.231834        0        
C3        C        0.357143        0.354166        0.231834        0        
C4        C        0.392857        0.291666        0.231834        0        
C1        C        0.357143        0.395833        0.231834        0        
C2        C        0.392857        0.458334        0.231834        0        
C3        C        0.357143        0.479166        0.231834        0        
C4        C        0.392857        0.416666        0.231834        0        
C1        C        0.357143        0.520834        0.231834        0        
C2        C        0.392857        0.583334        0.231834        0        
C3        C        0.357143        0.604166        0.231834        0        
C4        C        0.392857        0.541666        0.231834        0        
C1        C        0.357143        0.645834        0.231834        0        
C2        C        0.392857        0.708334        0.231834        0        
C3        C        0.357143        0.729166        0.231834        0        
C4        C        0.392857        0.666666        0.231834        0        
C1        C        0.428571        0.020834        0.231834        0        
C2        C        0.464286        0.083334        0.231834        0        
C3        C        0.428571        0.104166        0.231834        0        
C4        C        0.464286        0.041666        0.231834        0        
C1        C        0.428571        0.145834        0.231834        0        
C2        C        0.464286        0.208334        0.231834        0        
C3        C        0.428571        0.229166        0.231834        0        
C4        C        0.464286        0.166666        0.231834        0        
C1        C        0.428571        0.270834        0.231834        0        
C2        C        0.464286        0.333334        0.231834        0        
C3        C        0.428571        0.354166        0.231834        0        
C4        C        0.464286        0.291666        0.231834        0        
C1        C        0.428571        0.395833        0.231834        0        
C2        C        0.464286        0.458334        0.231834        0        
C3        C        0.428571        0.479166        0.231834        0        
C4        C        0.464286        0.416666        0.231834        0        
C1        C        0.428571        0.520834        0.231834        0        
C2        C        0.464286        0.583334        0.231834        0        
C3        C        0.428571        0.604166        0.231834        0        
C4        C        0.464286        0.541666        0.231834        0        
C1        C        0.428571        0.645834        0.231834        0        
C2        C        0.464286        0.708334        0.231834        0        
C3        C        0.428571        0.729166        0.231834        0        
C4        C        0.464286        0.666666        0.231834        0        
C1        C        0.5        0.020834        0.231834        0        
C2        C        0.535714        0.083334        0.231834        0        
C3        C        0.5        0.104166        0.231834        0        
C4        C        0.535714        0.041666        0.231834        0        
C1        C        0.5        0.145834        0.231834        0        
C2        C        0.535714        0.208334        0.231834        0        
C3        C        0.5        0.229166        0.231834        0        
C4        C        0.535714        0.166666        0.231834        0        
C1        C        0.5        0.270834        0.231834        0        
C2        C        0.535714        0.333334        0.231834        0        
C3        C        0.5        0.354166        0.231834        0        
C4        C        0.535714        0.291666        0.231834        0        
C1        C        0.5        0.395833        0.231834        0        
C2        C        0.535714        0.458334        0.231834        0        
C3        C        0.5        0.479166        0.231834        0        
C4        C        0.535714        0.416666        0.231834        0        
C1        C        0.5        0.520834        0.231834        0        
C2        C        0.535714        0.583334        0.231834        0        
C3        C        0.5        0.604166        0.231834        0        
C4        C        0.535714        0.541666        0.231834        0        
C1        C        0.5        0.645834        0.231834        0        
C2        C        0.535714        0.708334        0.231834        0        
C3        C        0.5        0.729166        0.231834        0        
C4        C        0.535714        0.666666        0.231834        0        
C1        C        0.571429        0.020834        0.231834        0        
C2        C        0.607143        0.083334        0.231834        0        
C3        C        0.571429        0.104166        0.231834        0        
C4        C        0.607143        0.041666        0.231834        0        
C1        C        0.571429        0.145834        0.231834        0        
C2        C        0.607143        0.208334        0.231834        0        
C3        C        0.571429        0.229166        0.231834        0        
C4        C        0.607143        0.166666        0.231834        0        
C1        C        0.571429        0.270834        0.231834        0        
C2        C        0.607143        0.333334        0.231834        0        
C3        C        0.571429        0.354166        0.231834        0        
C4        C        0.607143        0.291666        0.231834        0        
C1        C        0.571429        0.395833        0.231834        0        
C2        C        0.607143        0.458334        0.231834        0        
C3        C        0.571429        0.479166        0.231834        0        
C4        C        0.607143        0.416666        0.231834        0        
C1        C        0.571429        0.520834        0.231834        0        
C2        C        0.607143        0.583334        0.231834        0        
C3        C        0.571429        0.604166        0.231834        0        
C4        C        0.607143        0.541666        0.231834        0        
C1        C        0.571429        0.645834        0.231834        0        
C2        C        0.607143        0.708334        0.231834        0        
C3        C        0.571429        0.729166        0.231834        0        
C4        C        0.607143        0.666666        0.231834        0        
C1        C        0.642857        0.020834        0.231834        0        
C2        C        0.678571        0.083334        0.231834        0        
C3        C        0.642857        0.104166        0.231834        0        
C4        C        0.678571        0.041666        0.231834        0        
C1        C        0.642857        0.145834        0.231834        0        
C2        C        0.678571        0.208334        0.231834        0        
C3        C        0.642857        0.229166        0.231834        0        
C4        C        0.678571        0.166666        0.231834        0        
C1        C        0.642857        0.270834        0.231834        0        
C2        C        0.678571        0.333334        0.231834        0        
C3        C        0.642857        0.354166        0.231834        0        
C4        C        0.678571        0.291666        0.231834        0        
C1        C        0.642857        0.395833        0.231834        0        
C2        C        0.678571        0.458334        0.231834        0        
C3        C        0.642857        0.479166        0.231834        0        
C4        C        0.678571        0.416666        0.231834        0        
C1        C        0.642857        0.520834        0.231834        0        
C2        C        0.678571        0.583334        0.231834        0        
C3        C        0.642857        0.604166        0.231834        0        
C4        C        0.678571        0.541666        0.231834        0        
C1        C        0.642857        0.645834        0.231834        0        
C2        C        0.678571        0.708334        0.231834        0        
C3        C        0.642857        0.729166        0.231834        0        
C4        C        0.678571        0.666666        0.231834        0        
C1        C        0.714286        0.020834        0.231834        0        
C2        C        0.75        0.083334        0.231834        0        
C3        C        0.714286        0.104166        0.231834        0        
C4        C        0.75        0.041666        0.231834        0        
C1        C        0.714286        0.145834        0.231834        0        
C2        C        0.75        0.208334        0.231834        0        
C3        C        0.714286        0.229166        0.231834        0        
C4        C        0.75        0.166666        0.231834        0        
C1        C        0.714286        0.270834        0.231834        0        
C2        C        0.75        0.333334        0.231834        0        
C3        C        0.714286        0.354166        0.231834        0        
C4        C        0.75        0.291666        0.231834        0        
C1        C        0.714286        0.395833        0.231834        0        
C2        C        0.75        0.458334        0.231834        0        
C3        C        0.714286        0.479166        0.231834        0        
C4        C        0.75        0.416666        0.231834        0        
C1        C        0.714286        0.520834        0.231834        0        
C2        C        0.75        0.583334        0.231834        0        
C3        C        0.714286        0.604166        0.231834        0        
C4        C        0.75        0.541666        0.231834        0        
C1        C        0.714286        0.645834        0.231834        0        
C2        C        0.75        0.708334        0.231834        0        
C3        C        0.714286        0.729166        0.231834        0        
C4        C        0.75        0.666666        0.231834        0        
C_FG        C        0.785714        0.020834        0.231834        0.2        
C2        C        0.821429        0.083334        0.231834        0        
C3        C        0.785714        0.104166        0.231834        0        
C4        C        0.821429        0.041666        0.231834        0        
C_FG        C        0.785714        0.145834        0.231834        0.2        
C2        C        0.821429        0.208334        0.231834        0        
C3        C        0.785714        0.229166        0.231834        0        
C4        C        0.821429        0.166666        0.231834        0        
C_FG        C        0.785714        0.270834        0.231834        0.2        
C2        C        0.821429        0.333334        0.231834        0        
C3        C        0.785714        0.354166        0.231834        0        
C4        C        0.821429        0.291666        0.231834        0        
C_FG        C        0.785714        0.395833        0.231834        0.2        
C2        C        0.821429        0.458334        0.231834        0        
C3        C        0.785714        0.479166        0.231834        0        
C4        C        0.821429        0.416666        0.231834        0        
C_FG        C        0.785714        0.520834        0.231834        0.2        
C2        C        0.821429        0.583334        0.231834        0        
C3        C        0.785714        0.604166        0.231834        0        
C4        C        0.821429        0.541666        0.231834        0        
C_FG        C        0.785714        0.645834        0.231834        0.2        
C2        C        0.821429        0.708334        0.231834        0        
C3        C        0.785714        0.729166        0.231834        0        
C4        C        0.821429        0.666666        0.231834        0        
C1        C        0.857143        0.020834        0.231834        0        
C2        C        0.892857        0.083334        0.231834        0        
C3        C        0.857143        0.104166        0.231834        0        
C4        C        0.892857        0.041666        0.231834        0        
C1        C        0.857143        0.145834        0.231834        0        
C2        C        0.892857        0.208334        0.231834        0        
C3        C        0.857143        0.229166        0.231834        0        
C4        C        0.892857        0.166666        0.231834        0        
C1        C        0.857143        0.270834        0.231834        0        
C2        C        0.892857        0.333334        0.231834        0        
C3        C        0.857143        0.354166        0.231834        0        
C4        C        0.892857        0.291666        0.231834        0        
C1        C        0.857143        0.395833        0.231834        0        
C2        C        0.892857        0.458334        0.231834        0        
C3        C        0.857143        0.479166        0.231834        0        
C4        C        0.892857        0.416666        0.231834        0        
C1        C        0.857143        0.520834        0.231834        0        
C2        C        0.892857        0.583334        0.231834        0        
C3        C        0.857143        0.604166        0.231834        0        
C4        C        0.892857        0.541666        0.231834        0        
C1        C        0.857143        0.645834        0.231834        0        
C2        C        0.892857        0.708334        0.231834        0        
C3        C        0.857143        0.729166        0.231834        0        
C4        C        0.892857        0.666666        0.231834        0        
C_FG        C        0.928571        0.020834        0.231834        0.2        
C2        C        0.964286        0.083334        0.231834        0        
C3        C        0.928571        0.104166        0.231834        0        
C4        C        0.964286        0.041666        0.231834        0        
C_FG        C        0.928571        0.145834        0.231834        0.2        
C2        C        0.964286        0.208334        0.231834        0        
C3        C        0.928571        0.229166        0.231834        0        
C4        C        0.964286        0.166666        0.231834        0        
C_FG        C        0.928571        0.270834        0.231834        0.2        
C2        C        0.964286        0.333334        0.231834        0        
C3        C        0.928571        0.354166        0.231834        0        
C4        C        0.964286        0.291666        0.231834        0        
C_FG        C        0.928571        0.395833        0.231834        0.2        
C2        C        0.964286        0.458334        0.231834        0        
C3        C        0.928571        0.479166        0.231834        0        
C4        C        0.964286        0.416666        0.231834        0        
C_FG        C        0.928571        0.520834        0.231834        0.2        
C2        C        0.964286        0.583334        0.231834        0        
C3        C        0.928571        0.604166        0.231834        0        
C4        C        0.964286        0.541666        0.231834        0        
C_FG        C        0.928571        0.645834        0.231834        0.2        
C2        C        0.964286        0.708334        0.231834        0        
C3        C        0.928571        0.729166        0.231834        0        
C4        C        0.964286        0.666666        0.231834        0        
C1        C        0.0        0.770834        0.231834        0        
C_FG        C        0.071429        0.770834        0.231834        0.2        
C1        C        0.142857        0.770834        0.231834        0        
C_FG        C        0.214286        0.770834        0.231834        0.2        
C1        C        0.285714        0.770834        0.231834        0        
C1        C        0.357143        0.770834        0.231834        0        
C1        C        0.428571        0.770834        0.231834        0        
C1        C        0.5        0.770834        0.231834        0        
C1        C        0.571429        0.770834        0.231834        0        
C1        C        0.642857        0.770834        0.231834        0        
C1        C        0.714286        0.770834        0.231834        0        
C_FG        C        0.785714        0.770834        0.231834        0.2        
C1        C        0.857143        0.770834        0.231834        0        
C_FG        C        0.928571        0.770834        0.231834        0.2        
C2        C        0.035714        0.833334        0.231834        0        
C2        C        0.107143        0.833334        0.231834        0        
C2        C        0.178571        0.833334        0.231834        0        
C2        C        0.25        0.833334        0.231834        0        
C2        C        0.321429        0.833334        0.231834        0        
C2        C        0.392857        0.833334        0.231834        0        
C2        C        0.464286        0.833334        0.231834        0        
C2        C        0.535714        0.833334        0.231834        0        
C2        C        0.607143        0.833334        0.231834        0        
C2        C        0.678571        0.833334        0.231834        0        
C2        C        0.75        0.833334        0.231834        0        
C2        C        0.821429        0.833334        0.231834        0        
C2        C        0.892857        0.833334        0.231834        0        
C2        C        0.964286        0.833334        0.231834        0        
C3        C        0.0        0.854167        0.231834        0        
C3        C        0.071429        0.854167        0.231834        0        
C3        C        0.142857        0.854167        0.231834        0        
C3        C        0.214286        0.854167        0.231834        0        
C3        C        0.285714        0.854167        0.231834        0        
C3        C        0.357143        0.854167        0.231834        0        
C3        C        0.428571        0.854167        0.231834        0        
C3        C        0.5        0.854167        0.231834        0        
C3        C        0.571429        0.854167        0.231834        0        
C3        C        0.642857        0.854167        0.231834        0        
C3        C        0.714286        0.854167        0.231834        0        
C3        C        0.785714        0.854167        0.231834        0        
C3        C        0.857143        0.854167        0.231834        0        
C3        C        0.928571        0.854167        0.231834        0        
C4        C        0.035714        0.791666        0.231834        0        
C4        C        0.107143        0.791666        0.231834        0        
C4        C        0.178571        0.791666        0.231834        0        
C4        C        0.25        0.791666        0.231834        0        
C4        C        0.321429        0.791666        0.231834        0        
C4        C        0.392857        0.791666        0.231834        0        
C4        C        0.464286        0.791666        0.231834        0        
C4        C        0.535714        0.791666        0.231834        0        
C4        C        0.607143        0.791666        0.231834        0        
C4        C        0.678571        0.791666        0.231834        0        
C4        C        0.75        0.791666        0.231834        0        
C4        C        0.821429        0.791666        0.231834        0        
C4        C        0.892857        0.791666        0.231834        0        
C4        C        0.964286        0.791666        0.231834        0        
C1        C        0.0        0.895834        0.231834        0        
C_FG        C        0.071429        0.895834        0.231834        0.2        
C1        C        0.142857        0.895834        0.231834        0        
C_FG        C        0.214286        0.895834        0.231834        0.2        
C1        C        0.285714        0.895834        0.231834        0        
C1        C        0.357143        0.895834        0.231834        0        
C1        C        0.428571        0.895834        0.231834        0        
C1        C        0.5        0.895834        0.231834        0        
C1        C        0.571429        0.895834        0.231834        0        
C1        C        0.642857        0.895834        0.231834        0        
C1        C        0.714286        0.895834        0.231834        0        
C_FG        C        0.785714        0.895834        0.231834        0.2        
C1        C        0.857143        0.895834        0.231834        0        
C_FG        C        0.928571        0.895834        0.231834        0.2        
C2        C        0.035714        0.958334        0.231834        0        
C2        C        0.107143        0.958334        0.231834        0        
C2        C        0.178571        0.958334        0.231834        0        
C2        C        0.25        0.958334        0.231834        0        
C2        C        0.321429        0.958334        0.231834        0        
C2        C        0.392857        0.958334        0.231834        0        
C2        C        0.464286        0.958334        0.231834        0        
C2        C        0.535714        0.958334        0.231834        0        
C2        C        0.607143        0.958334        0.231834        0        
C2        C        0.678571        0.958334        0.231834        0        
C2        C        0.75        0.958334        0.231834        0        
C2        C        0.821429        0.958334        0.231834        0        
C2        C        0.892857        0.958334        0.231834        0        
C2        C        0.964286        0.958334        0.231834        0        
C3        C        0.0        0.979167        0.231834        0        
C3        C        0.071429        0.979167        0.231834        0        
C3        C        0.142857        0.979167        0.231834        0        
C3        C        0.214286        0.979167        0.231834        0        
C3        C        0.285714        0.979167        0.231834        0        
C3        C        0.357143        0.979167        0.231834        0        
C3        C        0.428571        0.979167        0.231834        0        
C3        C        0.5        0.979167        0.231834        0        
C3        C        0.571429        0.979167        0.231834        0        
C3        C        0.642857        0.979167        0.231834        0        
C3        C        0.714286        0.979167        0.231834        0        
C3        C        0.785714        0.979167        0.231834        0        
C3        C        0.857143        0.979167        0.231834        0        
C3        C        0.928571        0.979167        0.231834        0        
C4        C        0.035714        0.916666        0.231834        0        
C4        C        0.107143        0.916666        0.231834        0        
C4        C        0.178571        0.916666        0.231834        0        
C4        C        0.25        0.916666        0.231834        0        
C4        C        0.321429        0.916666        0.231834        0        
C4        C        0.392857        0.916666        0.231834        0        
C4        C        0.464286        0.916666        0.231834        0        
C4        C        0.535714        0.916666        0.231834        0        
C4        C        0.607143        0.916666        0.231834        0        
C4        C        0.678571        0.916666        0.231834        0        
C4        C        0.75        0.916666        0.231834        0        
C4        C        0.821429        0.916666        0.231834        0        
C4        C        0.892857        0.916666        0.231834        0        
C4        C        0.964286        0.916666        0.231834        0        
C1        C        0.0        0.020834        0.768166        0        
C2        C        0.035714        0.083334        0.768166        0        
C3        C        0.0        0.104166        0.768166        0        
C4        C        0.035714        0.041666        0.768166        0        
C1        C        0.0        0.145834        0.768166        0        
C2        C        0.035714        0.208334        0.768166        0        
C3        C        0.0        0.229166        0.768166        0        
C4        C        0.035714        0.166666        0.768166        0        
C1        C        0.0        0.270834        0.768166        0        
C2        C        0.035714        0.333334        0.768166        0        
C3        C        0.0        0.354166        0.768166        0        
C4        C        0.035714        0.291666        0.768166        0        
C1        C        0.0        0.395833        0.768166        0        
C2        C        0.035714        0.458334        0.768166        0        
C3        C        0.0        0.479166        0.768166        0        
C4        C        0.035714        0.416666        0.768166        0        
C1        C        0.0        0.520834        0.768166        0        
C2        C        0.035714        0.583334        0.768166        0        
C3        C        0.0        0.604166        0.768166        0        
C4        C        0.035714        0.541666        0.768166        0        
C1        C        0.0        0.645834        0.768166        0        
C2        C        0.035714        0.708334        0.768166        0        
C3        C        0.0        0.729166        0.768166        0        
C4        C        0.035714        0.666666        0.768166        0        
C_FG        C        0.071429        0.020834        0.768166        0.2        
C2        C        0.107143        0.083334        0.768166        0        
C3        C        0.071429        0.104166        0.768166        0        
C4        C        0.107143        0.041666        0.768166        0        
C_FG        C        0.071429        0.145834        0.768166        0.2        
C2        C        0.107143        0.208334        0.768166        0        
C3        C        0.071429        0.229166        0.768166        0        
C4        C        0.107143        0.166666        0.768166        0        
C_FG        C        0.071429        0.270834        0.768166        0.2        
C2        C        0.107143        0.333334        0.768166        0        
C3        C        0.071429        0.354166        0.768166        0        
C4        C        0.107143        0.291666        0.768166        0        
C_FG        C        0.071429        0.395833        0.768166        0.2        
C2        C        0.107143        0.458334        0.768166        0        
C3        C        0.071429        0.479166        0.768166        0        
C4        C        0.107143        0.416666        0.768166        0        
C_FG        C        0.071429        0.520834        0.768166        0.2        
C2        C        0.107143        0.583334        0.768166        0        
C3        C        0.071429        0.604166        0.768166        0        
C4        C        0.107143        0.541666        0.768166        0        
C_FG        C        0.071429        0.645834        0.768166        0.2        
C2        C        0.107143        0.708334        0.768166        0        
C3        C        0.071429        0.729166        0.768166        0        
C4        C        0.107143        0.666666        0.768166        0        
C1        C        0.142857        0.020834        0.768166        0        
C2        C        0.178571        0.083334        0.768166        0        
C3        C        0.142857        0.104166        0.768166        0        
C4        C        0.178571        0.041666        0.768166        0        
C1        C        0.142857        0.145834        0.768166        0        
C2        C        0.178571        0.208334        0.768166        0        
C3        C        0.142857        0.229166        0.768166        0        
C4        C        0.178571        0.166666        0.768166        0        
C1        C        0.142857        0.270834        0.768166        0        
C2        C        0.178571        0.333334        0.768166        0        
C3        C        0.142857        0.354166        0.768166        0        
C4        C        0.178571        0.291666        0.768166        0        
C1        C        0.142857        0.395833        0.768166        0        
C2        C        0.178571        0.458334        0.768166        0        
C3        C        0.142857        0.479166        0.768166        0        
C4        C        0.178571        0.416666        0.768166        0        
C1        C        0.142857        0.520834        0.768166        0        
C2        C        0.178571        0.583334        0.768166        0        
C3        C        0.142857        0.604166        0.768166        0        
C4        C        0.178571        0.541666        0.768166        0        
C1        C        0.142857        0.645834        0.768166        0        
C2        C        0.178571        0.708334        0.768166        0        
C3        C        0.142857        0.729166        0.768166        0        
C4        C        0.178571        0.666666        0.768166        0        
C_FG        C        0.214286        0.020834        0.768166        0.2        
C2        C        0.25        0.083334        0.768166        0        
C3        C        0.214286        0.104166        0.768166        0        
C4        C        0.25        0.041666        0.768166        0        
C_FG        C        0.214286        0.145834        0.768166        0.2        
C2        C        0.25        0.208334        0.768166        0        
C3        C        0.214286        0.229166        0.768166        0        
C4        C        0.25        0.166666        0.768166        0        
C_FG        C        0.214286        0.270834        0.768166        0.2        
C2        C        0.25        0.333334        0.768166        0        
C3        C        0.214286        0.354166        0.768166        0        
C4        C        0.25        0.291666        0.768166        0        
C_FG        C        0.214286        0.395833        0.768166        0.2        
C2        C        0.25        0.458334        0.768166        0        
C3        C        0.214286        0.479166        0.768166        0        
C4        C        0.25        0.416666        0.768166        0        
C_FG        C        0.214286        0.520834        0.768166        0.2        
C2        C        0.25        0.583334        0.768166        0        
C3        C        0.214286        0.604166        0.768166        0        
C4        C        0.25        0.541666        0.768166        0        
C_FG        C        0.214286        0.645834        0.768166        0.2        
C2        C        0.25        0.708334        0.768166        0        
C3        C        0.214286        0.729166        0.768166        0        
C4        C        0.25        0.666666        0.768166        0        
C1        C        0.285714        0.020834        0.768166        0        
C2        C        0.321429        0.083334        0.768166        0        
C3        C        0.285714        0.104166        0.768166        0        
C4        C        0.321429        0.041666        0.768166        0        
C1        C        0.285714        0.145834        0.768166        0        
C2        C        0.321429        0.208334        0.768166        0        
C3        C        0.285714        0.229166        0.768166        0        
C4        C        0.321429        0.166666        0.768166        0        
C1        C        0.285714        0.270834        0.768166        0        
C2        C        0.321429        0.333334        0.768166        0        
C3        C        0.285714        0.354166        0.768166        0        
C4        C        0.321429        0.291666        0.768166        0        
C1        C        0.285714        0.395833        0.768166        0        
C2        C        0.321429        0.458334        0.768166        0        
C3        C        0.285714        0.479166        0.768166        0        
C4        C        0.321429        0.416666        0.768166        0        
C1        C        0.285714        0.520834        0.768166        0        
C2        C        0.321429        0.583334        0.768166        0        
C3        C        0.285714        0.604166        0.768166        0        
C4        C        0.321429        0.541666        0.768166        0        
C1        C        0.285714        0.645834        0.768166        0        
C2        C        0.321429        0.708334        0.768166        0        
C3        C        0.285714        0.729166        0.768166        0        
C4        C        0.321429        0.666666        0.768166        0        
C1        C        0.357143        0.020834        0.768166        0        
C2        C        0.392857        0.083334        0.768166        0        
C3        C        0.357143        0.104166        0.768166        0        
C4        C        0.392857        0.041666        0.768166        0        
C1        C        0.357143        0.145834        0.768166        0        
C2        C        0.392857        0.208334        0.768166        0        
C3        C        0.357143        0.229166        0.768166        0        
C4        C        0.392857        0.166666        0.768166        0        
C1        C        0.357143        0.270834        0.768166        0        
C2        C        0.392857        0.333334        0.768166        0        
C3        C        0.357143        0.354166        0.768166        0        
C4        C        0.392857        0.291666        0.768166        0        
C1        C        0.357143        0.395833        0.768166        0        
C2        C        0.392857        0.458334        0.768166        0        
C3        C        0.357143        0.479166        0.768166        0        
C4        C        0.392857        0.416666        0.768166        0        
C1        C        0.357143        0.520834        0.768166        0        
C2        C        0.392857        0.583334        0.768166        0        
C3        C        0.357143        0.604166        0.768166        0        
C4        C        0.392857        0.541666        0.768166        0        
C1        C        0.357143        0.645834        0.768166        0        
C2        C        0.392857        0.708334        0.768166        0        
C3        C        0.357143        0.729166        0.768166        0        
C4        C        0.392857        0.666666        0.768166        0        
C1        C        0.428571        0.020834        0.768166        0        
C2        C        0.464286        0.083334        0.768166        0        
C3        C        0.428571        0.104166        0.768166        0        
C4        C        0.464286        0.041666        0.768166        0        
C1        C        0.428571        0.145834        0.768166        0        
C2        C        0.464286        0.208334        0.768166        0        
C3        C        0.428571        0.229166        0.768166        0        
C4        C        0.464286        0.166666        0.768166        0        
C1        C        0.428571        0.270834        0.768166        0        
C2        C        0.464286        0.333334        0.768166        0        
C3        C        0.428571        0.354166        0.768166        0        
C4        C        0.464286        0.291666        0.768166        0        
C1        C        0.428571        0.395833        0.768166        0        
C2        C        0.464286        0.458334        0.768166        0        
C3        C        0.428571        0.479166        0.768166        0        
C4        C        0.464286        0.416666        0.768166        0        
C1        C        0.428571        0.520834        0.768166        0        
C2        C        0.464286        0.583334        0.768166        0        
C3        C        0.428571        0.604166        0.768166        0        
C4        C        0.464286        0.541666        0.768166        0        
C1        C        0.428571        0.645834        0.768166        0        
C2        C        0.464286        0.708334        0.768166        0        
C3        C        0.428571        0.729166        0.768166        0        
C4        C        0.464286        0.666666        0.768166        0        
C1        C        0.5        0.020834        0.768166        0        
C2        C        0.535714        0.083334        0.768166        0        
C3        C        0.5        0.104166        0.768166        0        
C4        C        0.535714        0.041666        0.768166        0        
C1        C        0.5        0.145834        0.768166        0        
C2        C        0.535714        0.208334        0.768166        0        
C3        C        0.5        0.229166        0.768166        0        
C4        C        0.535714        0.166666        0.768166        0        
C1        C        0.5        0.270834        0.768166        0        
C2        C        0.535714        0.333334        0.768166        0        
C3        C        0.5        0.354166        0.768166        0        
C4        C        0.535714        0.291666        0.768166        0        
C1        C        0.5        0.395833        0.768166        0        
C2        C        0.535714        0.458334        0.768166        0        
C3        C        0.5        0.479166        0.768166        0        
C4        C        0.535714        0.416666        0.768166        0        
C1        C        0.5        0.520834        0.768166        0        
C2        C        0.535714        0.583334        0.768166        0        
C3        C        0.5        0.604166        0.768166        0        
C4        C        0.535714        0.541666        0.768166        0        
C1        C        0.5        0.645834        0.768166        0        
C2        C        0.535714        0.708334        0.768166        0        
C3        C        0.5        0.729166        0.768166        0        
C4        C        0.535714        0.666666        0.768166        0        
C1        C        0.571429        0.020834        0.768166        0        
C2        C        0.607143        0.083334        0.768166        0        
C3        C        0.571429        0.104166        0.768166        0        
C4        C        0.607143        0.041666        0.768166        0        
C1        C        0.571429        0.145834        0.768166        0        
C2        C        0.607143        0.208334        0.768166        0        
C3        C        0.571429        0.229166        0.768166        0        
C4        C        0.607143        0.166666        0.768166        0        
C1        C        0.571429        0.270834        0.768166        0        
C2        C        0.607143        0.333334        0.768166        0        
C3        C        0.571429        0.354166        0.768166        0        
C4        C        0.607143        0.291666        0.768166        0        
C1        C        0.571429        0.395833        0.768166        0        
C2        C        0.607143        0.458334        0.768166        0        
C3        C        0.571429        0.479166        0.768166        0        
C4        C        0.607143        0.416666        0.768166        0        
C1        C        0.571429        0.520834        0.768166        0        
C2        C        0.607143        0.583334        0.768166        0        
C3        C        0.571429        0.604166        0.768166        0        
C4        C        0.607143        0.541666        0.768166        0        
C1        C        0.571429        0.645834        0.768166        0        
C2        C        0.607143        0.708334        0.768166        0        
C3        C        0.571429        0.729166        0.768166        0        
C4        C        0.607143        0.666666        0.768166        0        
C1        C        0.642857        0.020834        0.768166        0        
C2        C        0.678571        0.083334        0.768166        0        
C3        C        0.642857        0.104166        0.768166        0        
C4        C        0.678571        0.041666        0.768166        0        
C1        C        0.642857        0.145834        0.768166        0        
C2        C        0.678571        0.208334        0.768166        0        
C3        C        0.642857        0.229166        0.768166        0        
C4        C        0.678571        0.166666        0.768166        0        
C1        C        0.642857        0.270834        0.768166        0        
C2        C        0.678571        0.333334        0.768166        0        
C3        C        0.642857        0.354166        0.768166        0        
C4        C        0.678571        0.291666        0.768166        0        
C1        C        0.642857        0.395833        0.768166        0        
C2        C        0.678571        0.458334        0.768166        0        
C3        C        0.642857        0.479166        0.768166        0        
C4        C        0.678571        0.416666        0.768166        0        
C1        C        0.642857        0.520834        0.768166        0        
C2        C        0.678571        0.583334        0.768166        0        
C3        C        0.642857        0.604166        0.768166        0        
C4        C        0.678571        0.541666        0.768166        0        
C1        C        0.642857        0.645834        0.768166        0        
C2        C        0.678571        0.708334        0.768166        0        
C3        C        0.642857        0.729166        0.768166        0        
C4        C        0.678571        0.666666        0.768166        0        
C1        C        0.714286        0.020834        0.768166        0        
C2        C        0.75        0.083334        0.768166        0        
C3        C        0.714286        0.104166        0.768166        0        
C4        C        0.75        0.041666        0.768166        0        
C1        C        0.714286        0.145834        0.768166        0        
C2        C        0.75        0.208334        0.768166        0        
C3        C        0.714286        0.229166        0.768166        0        
C4        C        0.75        0.166666        0.768166        0        
C1        C        0.714286        0.270834        0.768166        0        
C2        C        0.75        0.333334        0.768166        0        
C3        C        0.714286        0.354166        0.768166        0        
C4        C        0.75        0.291666        0.768166        0        
C1        C        0.714286        0.395833        0.768166        0        
C2        C        0.75        0.458334        0.768166        0        
C3        C        0.714286        0.479166        0.768166        0        
C4        C        0.75        0.416666        0.768166        0        
C1        C        0.714286        0.520834        0.768166        0        
C2        C        0.75        0.583334        0.768166        0        
C3        C        0.714286        0.604166        0.768166        0        
C4        C        0.75        0.541666        0.768166        0        
C1        C        0.714286        0.645834        0.768166        0        
C2        C        0.75        0.708334        0.768166        0        
C3        C        0.714286        0.729166        0.768166        0        
C4        C        0.75        0.666666        0.768166        0        
C_FG        C        0.785714        0.020834        0.768166        0.2        
C2        C        0.821429        0.083334        0.768166        0        
C3        C        0.785714        0.104166        0.768166        0        
C4        C        0.821429        0.041666        0.768166        0        
C_FG        C        0.785714        0.145834        0.768166        0.2        
C2        C        0.821429        0.208334        0.768166        0        
C3        C        0.785714        0.229166        0.768166        0        
C4        C        0.821429        0.166666        0.768166        0        
C_FG        C        0.785714        0.270834        0.768166        0.2        
C2        C        0.821429        0.333334        0.768166        0        
C3        C        0.785714        0.354166        0.768166        0        
C4        C        0.821429        0.291666        0.768166        0        
C_FG        C        0.785714        0.395833        0.768166        0.2        
C2        C        0.821429        0.458334        0.768166        0        
C3        C        0.785714        0.479166        0.768166        0        
C4        C        0.821429        0.416666        0.768166        0        
C_FG        C        0.785714        0.520834        0.768166        0.2        
C2        C        0.821429        0.583334        0.768166        0        
C3        C        0.785714        0.604166        0.768166        0        
C4        C        0.821429        0.541666        0.768166        0        
C_FG        C        0.785714        0.645834        0.768166        0.2        
C2        C        0.821429        0.708334        0.768166        0        
C3        C        0.785714        0.729166        0.768166        0        
C4        C        0.821429        0.666666        0.768166        0        
C1        C        0.857143        0.020834        0.768166        0        
C2        C        0.892857        0.083334        0.768166        0        
C3        C        0.857143        0.104166        0.768166        0        
C4        C        0.892857        0.041666        0.768166        0        
C1        C        0.857143        0.145834        0.768166        0        
C2        C        0.892857        0.208334        0.768166        0        
C3        C        0.857143        0.229166        0.768166        0        
C4        C        0.892857        0.166666        0.768166        0        
C1        C        0.857143        0.270834        0.768166        0        
C2        C        0.892857        0.333334        0.768166        0        
C3        C        0.857143        0.354166        0.768166        0        
C4        C        0.892857        0.291666        0.768166        0        
C1        C        0.857143        0.395833        0.768166        0        
C2        C        0.892857        0.458334        0.768166        0        
C3        C        0.857143        0.479166        0.768166        0        
C4        C        0.892857        0.416666        0.768166        0        
C1        C        0.857143        0.520834        0.768166        0        
C2        C        0.892857        0.583334        0.768166        0        
C3        C        0.857143        0.604166        0.768166        0        
C4        C        0.892857        0.541666        0.768166        0        
C1        C        0.857143        0.645834        0.768166        0        
C2        C        0.892857        0.708334        0.768166        0        
C3        C        0.857143        0.729166        0.768166        0        
C4        C        0.892857        0.666666        0.768166        0        
C_FG        C        0.928571        0.020834        0.768166        0.2        
C2        C        0.964286        0.083334        0.768166        0        
C3        C        0.928571        0.104166        0.768166        0        
C4        C        0.964286        0.041666        0.768166        0        
C_FG        C        0.928571        0.145834        0.768166        0.2        
C2        C        0.964286        0.208334        0.768166        0        
C3        C        0.928571        0.229166        0.768166        0        
C4        C        0.964286        0.166666        0.768166        0        
C_FG        C        0.928571        0.270834        0.768166        0.2        
C2        C        0.964286        0.333334        0.768166        0        
C3        C        0.928571        0.354166        0.768166        0        
C4        C        0.964286        0.291666        0.768166        0        
C_FG        C        0.928571        0.395833        0.768166        0.2        
C2        C        0.964286        0.458334        0.768166        0        
C3        C        0.928571        0.479166        0.768166        0        
C4        C        0.964286        0.416666        0.768166        0        
C_FG        C        0.928571        0.520834        0.768166        0.2        
C2        C        0.964286        0.583334        0.768166        0        
C3        C        0.928571        0.604166        0.768166        0        
C4        C        0.964286        0.541666        0.768166        0        
C_FG        C        0.928571        0.645834        0.768166        0.2        
C2        C        0.964286        0.708334        0.768166        0        
C3        C        0.928571        0.729166        0.768166        0        
C4        C        0.964286        0.666666        0.768166        0        
C1        C        0.0        0.770834        0.768166        0        
C_FG        C        0.071429        0.770834        0.768166        0.2        
C1        C        0.142857        0.770834        0.768166        0        
C_FG        C        0.214286        0.770834        0.768166        0.2        
C1        C        0.285714        0.770834        0.768166        0        
C1        C        0.357143        0.770834        0.768166        0        
C1        C        0.428571        0.770834        0.768166        0        
C1        C        0.5        0.770834        0.768166        0        
C1        C        0.571429        0.770834        0.768166        0        
C1        C        0.642857        0.770834        0.768166        0        
C1        C        0.714286        0.770834        0.768166        0        
C_FG        C        0.785714        0.770834        0.768166        0.2        
C1        C        0.857143        0.770834        0.768166        0        
C_FG        C        0.928571        0.770834        0.768166        0.2        
C2        C        0.035714        0.833334        0.768166        0        
C2        C        0.107143        0.833334        0.768166        0        
C2        C        0.178571        0.833334        0.768166        0        
C2        C        0.25        0.833334        0.768166        0        
C2        C        0.321429        0.833334        0.768166        0        
C2        C        0.392857        0.833334        0.768166        0        
C2        C        0.464286        0.833334        0.768166        0        
C2        C        0.535714        0.833334        0.768166        0        
C2        C        0.607143        0.833334        0.768166        0        
C2        C        0.678571        0.833334        0.768166        0        
C2        C        0.75        0.833334        0.768166        0        
C2        C        0.821429        0.833334        0.768166        0        
C2        C        0.892857        0.833334        0.768166        0        
C2        C        0.964286        0.833334        0.768166        0        
C3        C        0.0        0.854167        0.768166        0        
C3        C        0.071429        0.854167        0.768166        0        
C3        C        0.142857        0.854167        0.768166        0        
C3        C        0.214286        0.854167        0.768166        0        
C3        C        0.285714        0.854167        0.768166        0        
C3        C        0.357143        0.854167        0.768166        0        
C3        C        0.428571        0.854167        0.768166        0        
C3        C        0.5        0.854167        0.768166        0        
C3        C        0.571429        0.854167        0.768166        0        
C3        C        0.642857        0.854167        0.768166        0        
C3        C        0.714286        0.854167        0.768166        0        
C3        C        0.785714        0.854167        0.768166        0        
C3        C        0.857143        0.854167        0.768166        0        
C3        C        0.928571        0.854167        0.768166        0        
C4        C        0.035714        0.791666        0.768166        0        
C4        C        0.107143        0.791666        0.768166        0        
C4        C        0.178571        0.791666        0.768166        0        
C4        C        0.25        0.791666        0.768166        0        
C4        C        0.321429        0.791666        0.768166        0        
C4        C        0.392857        0.791666        0.768166        0        
C4        C        0.464286        0.791666        0.768166        0        
C4        C        0.535714        0.791666        0.768166        0        
C4        C        0.607143        0.791666        0.768166        0        
C4        C        0.678571        0.791666        0.768166        0        
C4        C        0.75        0.791666        0.768166        0        
C4        C        0.821429        0.791666        0.768166        0        
C4        C        0.892857        0.791666        0.768166        0        
C4        C        0.964286        0.791666        0.768166        0        
C1        C        0.0        0.895834        0.768166        0        
C_FG        C        0.071429        0.895834        0.768166        0.2        
C1        C        0.142857        0.895834        0.768166        0        
C_FG        C        0.214286        0.895834        0.768166        0.2        
C1        C        0.285714        0.895834        0.768166        0        
C1        C        0.357143        0.895834        0.768166        0        
C1        C        0.428571        0.895834        0.768166        0        
C1        C        0.5        0.895834        0.768166        0        
C1        C        0.571429        0.895834        0.768166        0        
C1        C        0.642857        0.895834        0.768166        0        
C1        C        0.714286        0.895834        0.768166        0        
C_FG        C        0.785714        0.895834        0.768166        0.2        
C1        C        0.857143        0.895834        0.768166        0        
C_FG        C        0.928571        0.895834        0.768166        0.2        
C2        C        0.035714        0.958334        0.768166        0        
C2        C        0.107143        0.958334        0.768166        0        
C2        C        0.178571        0.958334        0.768166        0        
C2        C        0.25        0.958334        0.768166        0        
C2        C        0.321429        0.958334        0.768166        0        
C2        C        0.392857        0.958334        0.768166        0        
C2        C        0.464286        0.958334        0.768166        0        
C2        C        0.535714        0.958334        0.768166        0        
C2        C        0.607143        0.958334        0.768166        0        
C2        C        0.678571        0.958334        0.768166        0        
C2        C        0.75        0.958334        0.768166        0        
C2        C        0.821429        0.958334        0.768166        0        
C2        C        0.892857        0.958334        0.768166        0        
C2        C        0.964286        0.958334        0.768166        0        
C3        C        0.0        0.979167        0.768166        0        
C3        C        0.071429        0.979167        0.768166        0        
C3        C        0.142857        0.979167        0.768166        0        
C3        C        0.214286        0.979167        0.768166        0        
C3        C        0.285714        0.979167        0.768166        0        
C3        C        0.357143        0.979167        0.768166        0        
C3        C        0.428571        0.979167        0.768166        0        
C3        C        0.5        0.979167        0.768166        0        
C3        C        0.571429        0.979167        0.768166        0        
C3        C        0.642857        0.979167        0.768166        0        
C3        C        0.714286        0.979167        0.768166        0        
C3        C        0.785714        0.979167        0.768166        0        
C3        C        0.857143        0.979167        0.768166        0        
C3        C        0.928571        0.979167        0.768166        0        
C4        C        0.035714        0.916666        0.768166        0        
C4        C        0.107143        0.916666        0.768166        0        
C4        C        0.178571        0.916666        0.768166        0        
C4        C        0.25        0.916666        0.768166        0        
C4        C        0.321429        0.916666        0.768166        0        
C4        C        0.392857        0.916666        0.768166        0        
C4        C        0.464286        0.916666        0.768166        0        
C4        C        0.535714        0.916666        0.768166        0        
C4        C        0.607143        0.916666        0.768166        0        
C4        C        0.678571        0.916666        0.768166        0        
C4        C        0.75        0.916666        0.768166        0        
C4        C        0.821429        0.916666        0.768166        0        
C4        C        0.892857        0.916666        0.768166        0        
C4        C        0.964286        0.916666        0.768166        0        
C1        C        0.0        0.020834        0.884083        0        
C2        C        0.035714        0.083334        0.884083        0        
C3        C        0.0        0.104166        0.884083        0        
C4        C        0.035714        0.041666        0.884083        0        
C1        C        0.0        0.145834        0.884083        0        
C2        C        0.035714        0.208334        0.884083        0        
C3        C        0.0        0.229166        0.884083        0        
C4        C        0.035714        0.166666        0.884083        0        
C1        C        0.0        0.270834        0.884083        0        
C2        C        0.035714        0.333334        0.884083        0        
C3        C        0.0        0.354166        0.884083        0        
C4        C        0.035714        0.291666        0.884083        0        
C1        C        0.0        0.395833        0.884083        0        
C2        C        0.035714        0.458334        0.884083        0        
C3        C        0.0        0.479166        0.884083        0        
C4        C        0.035714        0.416666        0.884083        0        
C1        C        0.0        0.520834        0.884083        0        
C2        C        0.035714        0.583334        0.884083        0        
C3        C        0.0        0.604166        0.884083        0        
C4        C        0.035714        0.541666        0.884083        0        
C1        C        0.0        0.645834        0.884083        0        
C2        C        0.035714        0.708334        0.884083        0        
C3        C        0.0        0.729166        0.884083        0        
C4        C        0.035714        0.666666        0.884083        0        
C1        C        0.071429        0.020834        0.884083        0        
C2        C        0.107143        0.083334        0.884083        0        
C3        C        0.071429        0.104166        0.884083        0        
C4        C        0.107143        0.041666        0.884083        0        
C1        C        0.071429        0.145834        0.884083        0        
C2        C        0.107143        0.208334        0.884083        0        
C3        C        0.071429        0.229166        0.884083        0        
C4        C        0.107143        0.166666        0.884083        0        
C1        C        0.071429        0.270834        0.884083        0        
C2        C        0.107143        0.333334        0.884083        0        
C3        C        0.071429        0.354166        0.884083        0        
C4        C        0.107143        0.291666        0.884083        0        
C1        C        0.071429        0.395833        0.884083        0        
C2        C        0.107143        0.458334        0.884083        0        
C3        C        0.071429        0.479166        0.884083        0        
C4        C        0.107143        0.416666        0.884083        0        
C1        C        0.071429        0.520834        0.884083        0        
C2        C        0.107143        0.583334        0.884083        0        
C3        C        0.071429        0.604166        0.884083        0        
C4        C        0.107143        0.541666        0.884083        0        
C1        C        0.071429        0.645834        0.884083        0        
C2        C        0.107143        0.708334        0.884083        0        
C3        C        0.071429        0.729166        0.884083        0        
C4        C        0.107143        0.666666        0.884083        0        
C1        C        0.142857        0.020834        0.884083        0        
C2        C        0.178571        0.083334        0.884083        0        
C3        C        0.142857        0.104166        0.884083        0        
C4        C        0.178571        0.041666        0.884083        0        
C1        C        0.142857        0.145834        0.884083        0        
C2        C        0.178571        0.208334        0.884083        0        
C3        C        0.142857        0.229166        0.884083        0        
C4        C        0.178571        0.166666        0.884083        0        
C1        C        0.142857        0.270834        0.884083        0        
C2        C        0.178571        0.333334        0.884083        0        
C3        C        0.142857        0.354166        0.884083        0        
C4        C        0.178571        0.291666        0.884083        0        
C1        C        0.142857        0.395833        0.884083        0        
C2        C        0.178571        0.458334        0.884083        0        
C3        C        0.142857        0.479166        0.884083        0        
C4        C        0.178571        0.416666        0.884083        0        
C1        C        0.142857        0.520834        0.884083        0        
C2        C        0.178571        0.583334        0.884083        0        
C3        C        0.142857        0.604166        0.884083        0        
C4        C        0.178571        0.541666        0.884083        0        
C1        C        0.142857        0.645834        0.884083        0        
C2        C        0.178571        0.708334        0.884083        0        
C3        C        0.142857        0.729166        0.884083        0        
C4        C        0.178571        0.666666        0.884083        0        
C1        C        0.214286        0.020834        0.884083        0        
C2        C        0.25        0.083334        0.884083        0        
C3        C        0.214286        0.104166        0.884083        0        
C4        C        0.25        0.041666        0.884083        0        
C1        C        0.214286        0.145834        0.884083        0        
C2        C        0.25        0.208334        0.884083        0        
C3        C        0.214286        0.229166        0.884083        0        
C4        C        0.25        0.166666        0.884083        0        
C1        C        0.214286        0.270834        0.884083        0        
C2        C        0.25        0.333334        0.884083        0        
C3        C        0.214286        0.354166        0.884083        0        
C4        C        0.25        0.291666        0.884083        0        
C1        C        0.214286        0.395833        0.884083        0        
C2        C        0.25        0.458334        0.884083        0        
C3        C        0.214286        0.479166        0.884083        0        
C4        C        0.25        0.416666        0.884083        0        
C1        C        0.214286        0.520834        0.884083        0        
C2        C        0.25        0.583334        0.884083        0        
C3        C        0.214286        0.604166        0.884083        0        
C4        C        0.25        0.541666        0.884083        0        
C1        C        0.214286        0.645834        0.884083        0        
C2        C        0.25        0.708334        0.884083        0        
C3        C        0.214286        0.729166        0.884083        0        
C4        C        0.25        0.666666        0.884083        0        
C1        C        0.285714        0.020834        0.884083        0        
C2        C        0.321429        0.083334        0.884083        0        
C3        C        0.285714        0.104166        0.884083        0        
C4        C        0.321429        0.041666        0.884083        0        
C1        C        0.285714        0.145834        0.884083        0        
C2        C        0.321429        0.208334        0.884083        0        
C3        C        0.285714        0.229166        0.884083        0        
C4        C        0.321429        0.166666        0.884083        0        
C1        C        0.285714        0.270834        0.884083        0        
C2        C        0.321429        0.333334        0.884083        0        
C3        C        0.285714        0.354166        0.884083        0        
C4        C        0.321429        0.291666        0.884083        0        
C1        C        0.285714        0.395833        0.884083        0        
C2        C        0.321429        0.458334        0.884083        0        
C3        C        0.285714        0.479166        0.884083        0        
C4        C        0.321429        0.416666        0.884083        0        
C1        C        0.285714        0.520834        0.884083        0        
C2        C        0.321429        0.583334        0.884083        0        
C3        C        0.285714        0.604166        0.884083        0        
C4        C        0.321429        0.541666        0.884083        0        
C1        C        0.285714        0.645834        0.884083        0        
C2        C        0.321429        0.708334        0.884083        0        
C3        C        0.285714        0.729166        0.884083        0        
C4        C        0.321429        0.666666        0.884083        0        
C1        C        0.357143        0.020834        0.884083        0        
C2        C        0.392857        0.083334        0.884083        0        
C3        C        0.357143        0.104166        0.884083        0        
C4        C        0.392857        0.041666        0.884083        0        
C1        C        0.357143        0.145834        0.884083        0        
C2        C        0.392857        0.208334        0.884083        0        
C3        C        0.357143        0.229166        0.884083        0        
C4        C        0.392857        0.166666        0.884083        0        
C1        C        0.357143        0.270834        0.884083        0        
C2        C        0.392857        0.333334        0.884083        0        
C3        C        0.357143        0.354166        0.884083        0        
C4        C        0.392857        0.291666        0.884083        0        
C1        C        0.357143        0.395833        0.884083        0        
C2        C        0.392857        0.458334        0.884083        0        
C3        C        0.357143        0.479166        0.884083        0        
C4        C        0.392857        0.416666        0.884083        0        
C1        C        0.357143        0.520834        0.884083        0        
C2        C        0.392857        0.583334        0.884083        0        
C3        C        0.357143        0.604166        0.884083        0        
C4        C        0.392857        0.541666        0.884083        0        
C1        C        0.357143        0.645834        0.884083        0        
C2        C        0.392857        0.708334        0.884083        0        
C3        C        0.357143        0.729166        0.884083        0        
C4        C        0.392857        0.666666        0.884083        0        
C1        C        0.428571        0.020834        0.884083        0        
C2        C        0.464286        0.083334        0.884083        0        
C3        C        0.428571        0.104166        0.884083        0        
C4        C        0.464286        0.041666        0.884083        0        
C1        C        0.428571        0.145834        0.884083        0        
C2        C        0.464286        0.208334        0.884083        0        
C3        C        0.428571        0.229166        0.884083        0        
C4        C        0.464286        0.166666        0.884083        0        
C1        C        0.428571        0.270834        0.884083        0        
C2        C        0.464286        0.333334        0.884083        0        
C3        C        0.428571        0.354166        0.884083        0        
C4        C        0.464286        0.291666        0.884083        0        
C1        C        0.428571        0.395833        0.884083        0        
C2        C        0.464286        0.458334        0.884083        0        
C3        C        0.428571        0.479166        0.884083        0        
C4        C        0.464286        0.416666        0.884083        0        
C1        C        0.428571        0.520834        0.884083        0        
C2        C        0.464286        0.583334        0.884083        0        
C3        C        0.428571        0.604166        0.884083        0        
C4        C        0.464286        0.541666        0.884083        0        
C1        C        0.428571        0.645834        0.884083        0        
C2        C        0.464286        0.708334        0.884083        0        
C3        C        0.428571        0.729166        0.884083        0        
C4        C        0.464286        0.666666        0.884083        0        
C1        C        0.5        0.020834        0.884083        0        
C2        C        0.535714        0.083334        0.884083        0        
C3        C        0.5        0.104166        0.884083        0        
C4        C        0.535714        0.041666        0.884083        0        
C1        C        0.5        0.145834        0.884083        0        
C2        C        0.535714        0.208334        0.884083        0        
C3        C        0.5        0.229166        0.884083        0        
C4        C        0.535714        0.166666        0.884083        0        
C1        C        0.5        0.270834        0.884083        0        
C2        C        0.535714        0.333334        0.884083        0        
C3        C        0.5        0.354166        0.884083        0        
C4        C        0.535714        0.291666        0.884083        0        
C1        C        0.5        0.395833        0.884083        0        
C2        C        0.535714        0.458334        0.884083        0        
C3        C        0.5        0.479166        0.884083        0        
C4        C        0.535714        0.416666        0.884083        0        
C1        C        0.5        0.520834        0.884083        0        
C2        C        0.535714        0.583334        0.884083        0        
C3        C        0.5        0.604166        0.884083        0        
C4        C        0.535714        0.541666        0.884083        0        
C1        C        0.5        0.645834        0.884083        0        
C2        C        0.535714        0.708334        0.884083        0        
C3        C        0.5        0.729166        0.884083        0        
C4        C        0.535714        0.666666        0.884083        0        
C1        C        0.571429        0.020834        0.884083        0        
C2        C        0.607143        0.083334        0.884083        0        
C3        C        0.571429        0.104166        0.884083        0        
C4        C        0.607143        0.041666        0.884083        0        
C1        C        0.571429        0.145834        0.884083        0        
C2        C        0.607143        0.208334        0.884083        0        
C3        C        0.571429        0.229166        0.884083        0        
C4        C        0.607143        0.166666        0.884083        0        
C1        C        0.571429        0.270834        0.884083        0        
C2        C        0.607143        0.333334        0.884083        0        
C3        C        0.571429        0.354166        0.884083        0        
C4        C        0.607143        0.291666        0.884083        0        
C1        C        0.571429        0.395833        0.884083        0        
C2        C        0.607143        0.458334        0.884083        0        
C3        C        0.571429        0.479166        0.884083        0        
C4        C        0.607143        0.416666        0.884083        0        
C1        C        0.571429        0.520834        0.884083        0        
C2        C        0.607143        0.583334        0.884083        0        
C3        C        0.571429        0.604166        0.884083        0        
C4        C        0.607143        0.541666        0.884083        0        
C1        C        0.571429        0.645834        0.884083        0        
C2        C        0.607143        0.708334        0.884083        0        
C3        C        0.571429        0.729166        0.884083        0        
C4        C        0.607143        0.666666        0.884083        0        
C1        C        0.642857        0.020834        0.884083        0        
C2        C        0.678571        0.083334        0.884083        0        
C3        C        0.642857        0.104166        0.884083        0        
C4        C        0.678571        0.041666        0.884083        0        
C1        C        0.642857        0.145834        0.884083        0        
C2        C        0.678571        0.208334        0.884083        0        
C3        C        0.642857        0.229166        0.884083        0        
C4        C        0.678571        0.166666        0.884083        0        
C1        C        0.642857        0.270834        0.884083        0        
C2        C        0.678571        0.333334        0.884083        0        
C3        C        0.642857        0.354166        0.884083        0        
C4        C        0.678571        0.291666        0.884083        0        
C1        C        0.642857        0.395833        0.884083        0        
C2        C        0.678571        0.458334        0.884083        0        
C3        C        0.642857        0.479166        0.884083        0        
C4        C        0.678571        0.416666        0.884083        0        
C1        C        0.642857        0.520834        0.884083        0        
C2        C        0.678571        0.583334        0.884083        0        
C3        C        0.642857        0.604166        0.884083        0        
C4        C        0.678571        0.541666        0.884083        0        
C1        C        0.642857        0.645834        0.884083        0        
C2        C        0.678571        0.708334        0.884083        0        
C3        C        0.642857        0.729166        0.884083        0        
C4        C        0.678571        0.666666        0.884083        0        
C1        C        0.714286        0.020834        0.884083        0        
C2        C        0.75        0.083334        0.884083        0        
C3        C        0.714286        0.104166        0.884083        0        
C4        C        0.75        0.041666        0.884083        0        
C1        C        0.714286        0.145834        0.884083        0        
C2        C        0.75        0.208334        0.884083        0        
C3        C        0.714286        0.229166        0.884083        0        
C4        C        0.75        0.166666        0.884083        0        
C1        C        0.714286        0.270834        0.884083        0        
C2        C        0.75        0.333334        0.884083        0        
C3        C        0.714286        0.354166        0.884083        0        
C4        C        0.75        0.291666        0.884083        0        
C1        C        0.714286        0.395833        0.884083        0        
C2        C        0.75        0.458334        0.884083        0        
C3        C        0.714286        0.479166        0.884083        0        
C4        C        0.75        0.416666        0.884083        0        
C1        C        0.714286        0.520834        0.884083        0        
C2        C        0.75        0.583334        0.884083        0        
C3        C        0.714286        0.604166        0.884083        0        
C4        C        0.75        0.541666        0.884083        0        
C1        C        0.714286        0.645834        0.884083        0        
C2        C        0.75        0.708334        0.884083        0        
C3        C        0.714286        0.729166        0.884083        0        
C4        C        0.75        0.666666        0.884083        0        
C1        C        0.785714        0.020834        0.884083        0        
C2        C        0.821429        0.083334        0.884083        0        
C3        C        0.785714        0.104166        0.884083        0        
C4        C        0.821429        0.041666        0.884083        0        
C1        C        0.785714        0.145834        0.884083        0        
C2        C        0.821429        0.208334        0.884083        0        
C3        C        0.785714        0.229166        0.884083        0        
C4        C        0.821429        0.166666        0.884083        0        
C1        C        0.785714        0.270834        0.884083        0        
C2        C        0.821429        0.333334        0.884083        0        
C3        C        0.785714        0.354166        0.884083        0        
C4        C        0.821429        0.291666        0.884083        0        
C1        C        0.785714        0.395833        0.884083        0        
C2        C        0.821429        0.458334        0.884083        0        
C3        C        0.785714        0.479166        0.884083        0        
C4        C        0.821429        0.416666        0.884083        0        
C1        C        0.785714        0.520834        0.884083        0        
C2        C        0.821429        0.583334        0.884083        0        
C3        C        0.785714        0.604166        0.884083        0        
C4        C        0.821429        0.541666        0.884083        0        
C1        C        0.785714        0.645834        0.884083        0        
C2        C        0.821429        0.708334        0.884083        0        
C3        C        0.785714        0.729166        0.884083        0        
C4        C        0.821429        0.666666        0.884083        0        
C1        C        0.857143        0.020834        0.884083        0        
C2        C        0.892857        0.083334        0.884083        0        
C3        C        0.857143        0.104166        0.884083        0        
C4        C        0.892857        0.041666        0.884083        0        
C1        C        0.857143        0.145834        0.884083        0        
C2        C        0.892857        0.208334        0.884083        0        
C3        C        0.857143        0.229166        0.884083        0        
C4        C        0.892857        0.166666        0.884083        0        
C1        C        0.857143        0.270834        0.884083        0        
C2        C        0.892857        0.333334        0.884083        0        
C3        C        0.857143        0.354166        0.884083        0        
C4        C        0.892857        0.291666        0.884083        0        
C1        C        0.857143        0.395833        0.884083        0        
C2        C        0.892857        0.458334        0.884083        0        
C3        C        0.857143        0.479166        0.884083        0        
C4        C        0.892857        0.416666        0.884083        0        
C1        C        0.857143        0.520834        0.884083        0        
C2        C        0.892857        0.583334        0.884083        0        
C3        C        0.857143        0.604166        0.884083        0        
C4        C        0.892857        0.541666        0.884083        0        
C1        C        0.857143        0.645834        0.884083        0        
C2        C        0.892857        0.708334        0.884083        0        
C3        C        0.857143        0.729166        0.884083        0        
C4        C        0.892857        0.666666        0.884083        0        
C1        C        0.928571        0.020834        0.884083        0        
C2        C        0.964286        0.083334        0.884083        0        
C3        C        0.928571        0.104166        0.884083        0        
C4        C        0.964286        0.041666        0.884083        0        
C1        C        0.928571        0.145834        0.884083        0        
C2        C        0.964286        0.208334        0.884083        0        
C3        C        0.928571        0.229166        0.884083        0        
C4        C        0.964286        0.166666        0.884083        0        
C1        C        0.928571        0.270834        0.884083        0        
C2        C        0.964286        0.333334        0.884083        0        
C3        C        0.928571        0.354166        0.884083        0        
C4        C        0.964286        0.291666        0.884083        0        
C1        C        0.928571        0.395833        0.884083        0        
C2        C        0.964286        0.458334        0.884083        0        
C3        C        0.928571        0.479166        0.884083        0        
C4        C        0.964286        0.416666        0.884083        0        
C1        C        0.928571        0.520834        0.884083        0        
C2        C        0.964286        0.583334        0.884083        0        
C3        C        0.928571        0.604166        0.884083        0        
C4        C        0.964286        0.541666        0.884083        0        
C1        C        0.928571        0.645834        0.884083        0        
C2        C        0.964286        0.708334        0.884083        0        
C3        C        0.928571        0.729166        0.884083        0        
C4        C        0.964286        0.666666        0.884083        0        
C1        C        0.0        0.770834        0.884083        0        
C1        C        0.071429        0.770834        0.884083        0        
C1        C        0.142857        0.770834        0.884083        0        
C1        C        0.214286        0.770834        0.884083        0        
C1        C        0.285714        0.770834        0.884083        0        
C1        C        0.357143        0.770834        0.884083        0        
C1        C        0.428571        0.770834        0.884083        0        
C1        C        0.5        0.770834        0.884083        0        
C1        C        0.571429        0.770834        0.884083        0        
C1        C        0.642857        0.770834        0.884083        0        
C1        C        0.714286        0.770834        0.884083        0        
C1        C        0.785714        0.770834        0.884083        0        
C1        C        0.857143        0.770834        0.884083        0        
C1        C        0.928571        0.770834        0.884083        0        
C2        C        0.035714        0.833334        0.884083        0        
C2        C        0.107143        0.833334        0.884083        0        
C2        C        0.178571        0.833334        0.884083        0        
C2        C        0.25        0.833334        0.884083        0        
C2        C        0.321429        0.833334        0.884083        0        
C2        C        0.392857        0.833334        0.884083        0        
C2        C        0.464286        0.833334        0.884083        0        
C2        C        0.535714        0.833334        0.884083        0        
C2        C        0.607143        0.833334        0.884083        0        
C2        C        0.678571        0.833334        0.884083        0        
C2        C        0.75        0.833334        0.884083        0        
C2        C        0.821429        0.833334        0.884083        0        
C2        C        0.892857        0.833334        0.884083        0        
C2        C        0.964286        0.833334        0.884083        0        
C3        C        0.0        0.854167        0.884083        0        
C3        C        0.071429        0.854167        0.884083        0        
C3        C        0.142857        0.854167        0.884083        0        
C3        C        0.214286        0.854167        0.884083        0        
C3        C        0.285714        0.854167        0.884083        0        
C3        C        0.357143        0.854167        0.884083        0        
C3        C        0.428571        0.854167        0.884083        0        
C3        C        0.5        0.854167        0.884083        0        
C3        C        0.571429        0.854167        0.884083        0        
C3        C        0.642857        0.854167        0.884083        0        
C3        C        0.714286        0.854167        0.884083        0        
C3        C        0.785714        0.854167        0.884083        0        
C3        C        0.857143        0.854167        0.884083        0        
C3        C        0.928571        0.854167        0.884083        0        
C4        C        0.035714        0.791666        0.884083        0        
C4        C        0.107143        0.791666        0.884083        0        
C4        C        0.178571        0.791666        0.884083        0        
C4        C        0.25        0.791666        0.884083        0        
C4        C        0.321429        0.791666        0.884083        0        
C4        C        0.392857        0.791666        0.884083        0        
C4        C        0.464286        0.791666        0.884083        0        
C4        C        0.535714        0.791666        0.884083        0        
C4        C        0.607143        0.791666        0.884083        0        
C4        C        0.678571        0.791666        0.884083        0        
C4        C        0.75        0.791666        0.884083        0        
C4        C        0.821429        0.791666        0.884083        0        
C4        C        0.892857        0.791666        0.884083        0        
C4        C        0.964286        0.791666        0.884083        0        
C1        C        0.0        0.895834        0.884083        0        
C1        C        0.071429        0.895834        0.884083        0        
C1        C        0.142857        0.895834        0.884083        0        
C1        C        0.214286        0.895834        0.884083        0        
C1        C        0.285714        0.895834        0.884083        0        
C1        C        0.357143        0.895834        0.884083        0        
C1        C        0.428571        0.895834        0.884083        0        
C1        C        0.5        0.895834        0.884083        0        
C1        C        0.571429        0.895834        0.884083        0        
C1        C        0.642857        0.895834        0.884083        0        
C1        C        0.714286        0.895834        0.884083        0        
C1        C        0.785714        0.895834        0.884083        0        
C1        C        0.857143        0.895834        0.884083        0        
C1        C        0.928571        0.895834        0.884083        0        
C2        C        0.035714        0.958334        0.884083        0        
C2        C        0.107143        0.958334        0.884083        0        
C2        C        0.178571        0.958334        0.884083        0        
C2        C        0.25        0.958334        0.884083        0        
C2        C        0.321429        0.958334        0.884083        0        
C2        C        0.392857        0.958334        0.884083        0        
C2        C        0.464286        0.958334        0.884083        0        
C2        C        0.535714        0.958334        0.884083        0        
C2        C        0.607143        0.958334        0.884083        0        
C2        C        0.678571        0.958334        0.884083        0        
C2        C        0.75        0.958334        0.884083        0        
C2        C        0.821429        0.958334        0.884083        0        
C2        C        0.892857        0.958334        0.884083        0        
C2        C        0.964286        0.958334        0.884083        0        
C3        C        0.0        0.979167        0.884083        0        
C3        C        0.071429        0.979167        0.884083        0        
C3        C        0.142857        0.979167        0.884083        0        
C3        C        0.214286        0.979167        0.884083        0        
C3        C        0.285714        0.979167        0.884083        0        
C3        C        0.357143        0.979167        0.884083        0        
C3        C        0.428571        0.979167        0.884083        0        
C3        C        0.5        0.979167        0.884083        0        
C3        C        0.571429        0.979167        0.884083        0        
C3        C        0.642857        0.979167        0.884083        0        
C3        C        0.714286        0.979167        0.884083        0        
C3        C        0.785714        0.979167        0.884083        0        
C3        C        0.857143        0.979167        0.884083        0        
C3        C        0.928571        0.979167        0.884083        0        
C4        C        0.035714        0.916666        0.884083        0        
C4        C        0.107143        0.916666        0.884083        0        
C4        C        0.178571        0.916666        0.884083        0        
C4        C        0.25        0.916666        0.884083        0        
C4        C        0.321429        0.916666        0.884083        0        
C4        C        0.392857        0.916666        0.884083        0        
C4        C        0.464286        0.916666        0.884083        0        
C4        C        0.535714        0.916666        0.884083        0        
C4        C        0.607143        0.916666        0.884083        0        
C4        C        0.678571        0.916666        0.884083        0        
C4        C        0.75        0.916666        0.884083        0        
C4        C        0.821429        0.916666        0.884083        0        
C4        C        0.892857        0.916666        0.884083        0        
C4        C        0.964286        0.916666        0.884083        0        
C1        C        0.0        0.020834        1.0        0        
C2        C        0.035714        0.083334        1.0        0        
C3        C        0.0        0.104166        1.0        0        
C4        C        0.035714        0.041666        1.0        0        
C1        C        0.0        0.145834        1.0        0        
C2        C        0.035714        0.208334        1.0        0        
C3        C        0.0        0.229166        1.0        0        
C4        C        0.035714        0.166666        1.0        0        
C1        C        0.0        0.270834        1.0        0        
C2        C        0.035714        0.333334        1.0        0        
C3        C        0.0        0.354166        1.0        0        
C4        C        0.035714        0.291666        1.0        0        
C1        C        0.0        0.395833        1.0        0        
C2        C        0.035714        0.458334        1.0        0        
C3        C        0.0        0.479166        1.0        0        
C4        C        0.035714        0.416666        1.0        0        
C1        C        0.0        0.520834        1.0        0        
C2        C        0.035714        0.583334        1.0        0        
C3        C        0.0        0.604166        1.0        0        
C4        C        0.035714        0.541666        1.0        0        
C1        C        0.0        0.645834        1.0        0        
C2        C        0.035714        0.708334        1.0        0        
C3        C        0.0        0.729166        1.0        0        
C4        C        0.035714        0.666666        1.0        0        
C1        C        0.071429        0.020834        1.0        0        
C2        C        0.107143        0.083334        1.0        0        
C3        C        0.071429        0.104166        1.0        0        
C4        C        0.107143        0.041666        1.0        0        
C1        C        0.071429        0.145834        1.0        0        
C2        C        0.107143        0.208334        1.0        0        
C3        C        0.071429        0.229166        1.0        0        
C4        C        0.107143        0.166666        1.0        0        
C1        C        0.071429        0.270834        1.0        0        
C2        C        0.107143        0.333334        1.0        0        
C3        C        0.071429        0.354166        1.0        0        
C4        C        0.107143        0.291666        1.0        0        
C1        C        0.071429        0.395833        1.0        0        
C2        C        0.107143        0.458334        1.0        0        
C3        C        0.071429        0.479166        1.0        0        
C4        C        0.107143        0.416666        1.0        0        
C1        C        0.071429        0.520834        1.0        0        
C2        C        0.107143        0.583334        1.0        0        
C3        C        0.071429        0.604166        1.0        0        
C4        C        0.107143        0.541666        1.0        0        
C1        C        0.071429        0.645834        1.0        0        
C2        C        0.107143        0.708334        1.0        0        
C3        C        0.071429        0.729166        1.0        0        
C4        C        0.107143        0.666666        1.0        0        
C1        C        0.142857        0.020834        1.0        0        
C2        C        0.178571        0.083334        1.0        0        
C3        C        0.142857        0.104166        1.0        0        
C4        C        0.178571        0.041666        1.0        0        
C1        C        0.142857        0.145834        1.0        0        
C2        C        0.178571        0.208334        1.0        0        
C3        C        0.142857        0.229166        1.0        0        
C4        C        0.178571        0.166666        1.0        0        
C1        C        0.142857        0.270834        1.0        0        
C2        C        0.178571        0.333334        1.0        0        
C3        C        0.142857        0.354166        1.0        0        
C4        C        0.178571        0.291666        1.0        0        
C1        C        0.142857        0.395833        1.0        0        
C2        C        0.178571        0.458334        1.0        0        
C3        C        0.142857        0.479166        1.0        0        
C4        C        0.178571        0.416666        1.0        0        
C1        C        0.142857        0.520834        1.0        0        
C2        C        0.178571        0.583334        1.0        0        
C3        C        0.142857        0.604166        1.0        0        
C4        C        0.178571        0.541666        1.0        0        
C1        C        0.142857        0.645834        1.0        0        
C2        C        0.178571        0.708334        1.0        0        
C3        C        0.142857        0.729166        1.0        0        
C4        C        0.178571        0.666666        1.0        0        
C1        C        0.214286        0.020834        1.0        0        
C2        C        0.25        0.083334        1.0        0        
C3        C        0.214286        0.104166        1.0        0        
C4        C        0.25        0.041666        1.0        0        
C1        C        0.214286        0.145834        1.0        0        
C2        C        0.25        0.208334        1.0        0        
C3        C        0.214286        0.229166        1.0        0        
C4        C        0.25        0.166666        1.0        0        
C1        C        0.214286        0.270834        1.0        0        
C2        C        0.25        0.333334        1.0        0        
C3        C        0.214286        0.354166        1.0        0        
C4        C        0.25        0.291666        1.0        0        
C1        C        0.214286        0.395833        1.0        0        
C2        C        0.25        0.458334        1.0        0        
C3        C        0.214286        0.479166        1.0        0        
C4        C        0.25        0.416666        1.0        0        
C1        C        0.214286        0.520834        1.0        0        
C2        C        0.25        0.583334        1.0        0        
C3        C        0.214286        0.604166        1.0        0        
C4        C        0.25        0.541666        1.0        0        
C1        C        0.214286        0.645834        1.0        0        
C2        C        0.25        0.708334        1.0        0        
C3        C        0.214286        0.729166        1.0        0        
C4        C        0.25        0.666666        1.0        0        
C1        C        0.285714        0.020834        1.0        0        
C2        C        0.321429        0.083334        1.0        0        
C3        C        0.285714        0.104166        1.0        0        
C4        C        0.321429        0.041666        1.0        0        
C1        C        0.285714        0.145834        1.0        0        
C2        C        0.321429        0.208334        1.0        0        
C3        C        0.285714        0.229166        1.0        0        
C4        C        0.321429        0.166666        1.0        0        
C1        C        0.285714        0.270834        1.0        0        
C2        C        0.321429        0.333334        1.0        0        
C3        C        0.285714        0.354166        1.0        0        
C4        C        0.321429        0.291666        1.0        0        
C1        C        0.285714        0.395833        1.0        0        
C2        C        0.321429        0.458334        1.0        0        
C3        C        0.285714        0.479166        1.0        0        
C4        C        0.321429        0.416666        1.0        0        
C1        C        0.285714        0.520834        1.0        0        
C2        C        0.321429        0.583334        1.0        0        
C3        C        0.285714        0.604166        1.0        0        
C4        C        0.321429        0.541666        1.0        0        
C1        C        0.285714        0.645834        1.0        0        
C2        C        0.321429        0.708334        1.0        0        
C3        C        0.285714        0.729166        1.0        0        
C4        C        0.321429        0.666666        1.0        0        
C1        C        0.357143        0.020834        1.0        0        
C2        C        0.392857        0.083334        1.0        0        
C3        C        0.357143        0.104166        1.0        0        
C4        C        0.392857        0.041666        1.0        0        
C1        C        0.357143        0.145834        1.0        0        
C2        C        0.392857        0.208334        1.0        0        
C3        C        0.357143        0.229166        1.0        0        
C4        C        0.392857        0.166666        1.0        0        
C1        C        0.357143        0.270834        1.0        0        
C2        C        0.392857        0.333334        1.0        0        
C3        C        0.357143        0.354166        1.0        0        
C4        C        0.392857        0.291666        1.0        0        
C1        C        0.357143        0.395833        1.0        0        
C2        C        0.392857        0.458334        1.0        0        
C3        C        0.357143        0.479166        1.0        0        
C4        C        0.392857        0.416666        1.0        0        
C1        C        0.357143        0.520834        1.0        0        
C2        C        0.392857        0.583334        1.0        0        
C3        C        0.357143        0.604166        1.0        0        
C4        C        0.392857        0.541666        1.0        0        
C1        C        0.357143        0.645834        1.0        0        
C2        C        0.392857        0.708334        1.0        0        
C3        C        0.357143        0.729166        1.0        0        
C4        C        0.392857        0.666666        1.0        0        
C1        C        0.428571        0.020834        1.0        0        
C2        C        0.464286        0.083334        1.0        0        
C3        C        0.428571        0.104166        1.0        0        
C4        C        0.464286        0.041666        1.0        0        
C1        C        0.428571        0.145834        1.0        0        
C2        C        0.464286        0.208334        1.0        0        
C3        C        0.428571        0.229166        1.0        0        
C4        C        0.464286        0.166666        1.0        0        
C1        C        0.428571        0.270834        1.0        0        
C2        C        0.464286        0.333334        1.0        0        
C3        C        0.428571        0.354166        1.0        0        
C4        C        0.464286        0.291666        1.0        0        
C1        C        0.428571        0.395833        1.0        0        
C2        C        0.464286        0.458334        1.0        0        
C3        C        0.428571        0.479166        1.0        0        
C4        C        0.464286        0.416666        1.0        0        
C1        C        0.428571        0.520834        1.0        0        
C2        C        0.464286        0.583334        1.0        0        
C3        C        0.428571        0.604166        1.0        0        
C4        C        0.464286        0.541666        1.0        0        
C1        C        0.428571        0.645834        1.0        0        
C2        C        0.464286        0.708334        1.0        0        
C3        C        0.428571        0.729166        1.0        0        
C4        C        0.464286        0.666666        1.0        0        
C1        C        0.5        0.020834        1.0        0        
C2        C        0.535714        0.083334        1.0        0        
C3        C        0.5        0.104166        1.0        0        
C4        C        0.535714        0.041666        1.0        0        
C1        C        0.5        0.145834        1.0        0        
C2        C        0.535714        0.208334        1.0        0        
C3        C        0.5        0.229166        1.0        0        
C4        C        0.535714        0.166666        1.0        0        
C1        C        0.5        0.270834        1.0        0        
C2        C        0.535714        0.333334        1.0        0        
C3        C        0.5        0.354166        1.0        0        
C4        C        0.535714        0.291666        1.0        0        
C1        C        0.5        0.395833        1.0        0        
C2        C        0.535714        0.458334        1.0        0        
C3        C        0.5        0.479166        1.0        0        
C4        C        0.535714        0.416666        1.0        0        
C1        C        0.5        0.520834        1.0        0        
C2        C        0.535714        0.583334        1.0        0        
C3        C        0.5        0.604166        1.0        0        
C4        C        0.535714        0.541666        1.0        0        
C1        C        0.5        0.645834        1.0        0        
C2        C        0.535714        0.708334        1.0        0        
C3        C        0.5        0.729166        1.0        0        
C4        C        0.535714        0.666666        1.0        0        
C1        C        0.571429        0.020834        1.0        0        
C2        C        0.607143        0.083334        1.0        0        
C3        C        0.571429        0.104166        1.0        0        
C4        C        0.607143        0.041666        1.0        0        
C1        C        0.571429        0.145834        1.0        0        
C2        C        0.607143        0.208334        1.0        0        
C3        C        0.571429        0.229166        1.0        0        
C4        C        0.607143        0.166666        1.0        0        
C1        C        0.571429        0.270834        1.0        0        
C2        C        0.607143        0.333334        1.0        0        
C3        C        0.571429        0.354166        1.0        0        
C4        C        0.607143        0.291666        1.0        0        
C1        C        0.571429        0.395833        1.0        0        
C2        C        0.607143        0.458334        1.0        0        
C3        C        0.571429        0.479166        1.0        0        
C4        C        0.607143        0.416666        1.0        0        
C1        C        0.571429        0.520834        1.0        0        
C2        C        0.607143        0.583334        1.0        0        
C3        C        0.571429        0.604166        1.0        0        
C4        C        0.607143        0.541666        1.0        0        
C1        C        0.571429        0.645834        1.0        0        
C2        C        0.607143        0.708334        1.0        0        
C3        C        0.571429        0.729166        1.0        0        
C4        C        0.607143        0.666666        1.0        0        
C1        C        0.642857        0.020834        1.0        0        
C2        C        0.678571        0.083334        1.0        0        
C3        C        0.642857        0.104166        1.0        0        
C4        C        0.678571        0.041666        1.0        0        
C1        C        0.642857        0.145834        1.0        0        
C2        C        0.678571        0.208334        1.0        0        
C3        C        0.642857        0.229166        1.0        0        
C4        C        0.678571        0.166666        1.0        0        
C1        C        0.642857        0.270834        1.0        0        
C2        C        0.678571        0.333334        1.0        0        
C3        C        0.642857        0.354166        1.0        0        
C4        C        0.678571        0.291666        1.0        0        
C1        C        0.642857        0.395833        1.0        0        
C2        C        0.678571        0.458334        1.0        0        
C3        C        0.642857        0.479166        1.0        0        
C4        C        0.678571        0.416666        1.0        0        
C1        C        0.642857        0.520834        1.0        0        
C2        C        0.678571        0.583334        1.0        0        
C3        C        0.642857        0.604166        1.0        0        
C4        C        0.678571        0.541666        1.0        0        
C1        C        0.642857        0.645834        1.0        0        
C2        C        0.678571        0.708334        1.0        0        
C3        C        0.642857        0.729166        1.0        0        
C4        C        0.678571        0.666666        1.0        0        
C1        C        0.714286        0.020834        1.0        0        
C2        C        0.75        0.083334        1.0        0        
C3        C        0.714286        0.104166        1.0        0        
C4        C        0.75        0.041666        1.0        0        
C1        C        0.714286        0.145834        1.0        0        
C2        C        0.75        0.208334        1.0        0        
C3        C        0.714286        0.229166        1.0        0        
C4        C        0.75        0.166666        1.0        0        
C1        C        0.714286        0.270834        1.0        0        
C2        C        0.75        0.333334        1.0        0        
C3        C        0.714286        0.354166        1.0        0        
C4        C        0.75        0.291666        1.0        0        
C1        C        0.714286        0.395833        1.0        0        
C2        C        0.75        0.458334        1.0        0        
C3        C        0.714286        0.479166        1.0        0        
C4        C        0.75        0.416666        1.0        0        
C1        C        0.714286        0.520834        1.0        0        
C2        C        0.75        0.583334        1.0        0        
C3        C        0.714286        0.604166        1.0        0        
C4        C        0.75        0.541666        1.0        0        
C1        C        0.714286        0.645834        1.0        0        
C2        C        0.75        0.708334        1.0        0        
C3        C        0.714286        0.729166        1.0        0        
C4        C        0.75        0.666666        1.0        0        
C1        C        0.785714        0.020834        1.0        0        
C2        C        0.821429        0.083334        1.0        0        
C3        C        0.785714        0.104166        1.0        0        
C4        C        0.821429        0.041666        1.0        0        
C1        C        0.785714        0.145834        1.0        0        
C2        C        0.821429        0.208334        1.0        0        
C3        C        0.785714        0.229166        1.0        0        
C4        C        0.821429        0.166666        1.0        0        
C1        C        0.785714        0.270834        1.0        0        
C2        C        0.821429        0.333334        1.0        0        
C3        C        0.785714        0.354166        1.0        0        
C4        C        0.821429        0.291666        1.0        0        
C1        C        0.785714        0.395833        1.0        0        
C2        C        0.821429        0.458334        1.0        0        
C3        C        0.785714        0.479166        1.0        0        
C4        C        0.821429        0.416666        1.0        0        
C1        C        0.785714        0.520834        1.0        0        
C2        C        0.821429        0.583334        1.0        0        
C3        C        0.785714        0.604166        1.0        0        
C4        C        0.821429        0.541666        1.0        0        
C1        C        0.785714        0.645834        1.0        0        
C2        C        0.821429        0.708334        1.0        0        
C3        C        0.785714        0.729166        1.0        0        
C4        C        0.821429        0.666666        1.0        0        
C1        C        0.857143        0.020834        1.0        0        
C2        C        0.892857        0.083334        1.0        0        
C3        C        0.857143        0.104166        1.0        0        
C4        C        0.892857        0.041666        1.0        0        
C1        C        0.857143        0.145834        1.0        0        
C2        C        0.892857        0.208334        1.0        0        
C3        C        0.857143        0.229166        1.0        0        
C4        C        0.892857        0.166666        1.0        0        
C1        C        0.857143        0.270834        1.0        0        
C2        C        0.892857        0.333334        1.0        0        
C3        C        0.857143        0.354166        1.0        0        
C4        C        0.892857        0.291666        1.0        0        
C1        C        0.857143        0.395833        1.0        0        
C2        C        0.892857        0.458334        1.0        0        
C3        C        0.857143        0.479166        1.0        0        
C4        C        0.892857        0.416666        1.0        0        
C1        C        0.857143        0.520834        1.0        0        
C2        C        0.892857        0.583334        1.0        0        
C3        C        0.857143        0.604166        1.0        0        
C4        C        0.892857        0.541666        1.0        0        
C1        C        0.857143        0.645834        1.0        0        
C2        C        0.892857        0.708334        1.0        0        
C3        C        0.857143        0.729166        1.0        0        
C4        C        0.892857        0.666666        1.0        0        
C1        C        0.928571        0.020834        1.0        0        
C2        C        0.964286        0.083334        1.0        0        
C3        C        0.928571        0.104166        1.0        0        
C4        C        0.964286        0.041666        1.0        0        
C1        C        0.928571        0.145834        1.0        0        
C2        C        0.964286        0.208334        1.0        0        
C3        C        0.928571        0.229166        1.0        0        
C4        C        0.964286        0.166666        1.0        0        
C1        C        0.928571        0.270834        1.0        0        
C2        C        0.964286        0.333334        1.0        0        
C3        C        0.928571        0.354166        1.0        0        
C4        C        0.964286        0.291666        1.0        0        
C1        C        0.928571        0.395833        1.0        0        
C2        C        0.964286        0.458334        1.0        0        
C3        C        0.928571        0.479166        1.0        0        
C4        C        0.964286        0.416666        1.0        0        
C1        C        0.928571        0.520834        1.0        0        
C2        C        0.964286        0.583334        1.0        0        
C3        C        0.928571        0.604166        1.0        0        
C4        C        0.964286        0.541666        1.0        0        
C1        C        0.928571        0.645834        1.0        0        
C2        C        0.964286        0.708334        1.0        0        
C3        C        0.928571        0.729166        1.0        0        
C4        C        0.964286        0.666666        1.0        0        
C1        C        0.0        0.770834        1.0        0        
C1        C        0.071429        0.770834        1.0        0        
C1        C        0.142857        0.770834        1.0        0        
C1        C        0.214286        0.770834        1.0        0        
C1        C        0.285714        0.770834        1.0        0        
C1        C        0.357143        0.770834        1.0        0        
C1        C        0.428571        0.770834        1.0        0        
C1        C        0.5        0.770834        1.0        0        
C1        C        0.571429        0.770834        1.0        0        
C1        C        0.642857        0.770834        1.0        0        
C1        C        0.714286        0.770834        1.0        0        
C1        C        0.785714        0.770834        1.0        0        
C1        C        0.857143        0.770834        1.0        0        
C1        C        0.928571        0.770834        1.0        0        
C2        C        0.035714        0.833334        1.0        0        
C2        C        0.107143        0.833334        1.0        0        
C2        C        0.178571        0.833334        1.0        0        
C2        C        0.25        0.833334        1.0        0        
C2        C        0.321429        0.833334        1.0        0        
C2        C        0.392857        0.833334        1.0        0        
C2        C        0.464286        0.833334        1.0        0        
C2        C        0.535714        0.833334        1.0        0        
C2        C        0.607143        0.833334        1.0        0        
C2        C        0.678571        0.833334        1.0        0        
C2        C        0.75        0.833334        1.0        0        
C2        C        0.821429        0.833334        1.0        0        
C2        C        0.892857        0.833334        1.0        0        
C2        C        0.964286        0.833334        1.0        0        
C3        C        0.0        0.854167        1.0        0        
C3        C        0.071429        0.854167        1.0        0        
C3        C        0.142857        0.854167        1.0        0        
C3        C        0.214286        0.854167        1.0        0        
C3        C        0.285714        0.854167        1.0        0        
C3        C        0.357143        0.854167        1.0        0        
C3        C        0.428571        0.854167        1.0        0        
C3        C        0.5        0.854167        1.0        0        
C3        C        0.571429        0.854167        1.0        0        
C3        C        0.642857        0.854167        1.0        0        
C3        C        0.714286        0.854167        1.0        0        
C3        C        0.785714        0.854167        1.0        0        
C3        C        0.857143        0.854167        1.0        0        
C3        C        0.928571        0.854167        1.0        0        
C4        C        0.035714        0.791666        1.0        0        
C4        C        0.107143        0.791666        1.0        0        
C4        C        0.178571        0.791666        1.0        0        
C4        C        0.25        0.791666        1.0        0        
C4        C        0.321429        0.791666        1.0        0        
C4        C        0.392857        0.791666        1.0        0        
C4        C        0.464286        0.791666        1.0        0        
C4        C        0.535714        0.791666        1.0        0        
C4        C        0.607143        0.791666        1.0        0        
C4        C        0.678571        0.791666        1.0        0        
C4        C        0.75        0.791666        1.0        0        
C4        C        0.821429        0.791666        1.0        0        
C4        C        0.892857        0.791666        1.0        0        
C4        C        0.964286        0.791666        1.0        0        
C1        C        0.0        0.895834        1.0        0        
C1        C        0.071429        0.895834        1.0        0        
C1        C        0.142857        0.895834        1.0        0        
C1        C        0.214286        0.895834        1.0        0        
C1        C        0.285714        0.895834        1.0        0        
C1        C        0.357143        0.895834        1.0        0        
C1        C        0.428571        0.895834        1.0        0        
C1        C        0.5        0.895834        1.0        0        
C1        C        0.571429        0.895834        1.0        0        
C1        C        0.642857        0.895834        1.0        0        
C1        C        0.714286        0.895834        1.0        0        
C1        C        0.785714        0.895834        1.0        0        
C1        C        0.857143        0.895834        1.0        0        
C1        C        0.928571        0.895834        1.0        0        
C2        C        0.035714        0.958334        1.0        0        
C2        C        0.107143        0.958334        1.0        0        
C2        C        0.178571        0.958334        1.0        0        
C2        C        0.25        0.958334        1.0        0        
C2        C        0.321429        0.958334        1.0        0        
C2        C        0.392857        0.958334        1.0        0        
C2        C        0.464286        0.958334        1.0        0        
C2        C        0.535714        0.958334        1.0        0        
C2        C        0.607143        0.958334        1.0        0        
C2        C        0.678571        0.958334        1.0        0        
C2        C        0.75        0.958334        1.0        0        
C2        C        0.821429        0.958334        1.0        0        
C2        C        0.892857        0.958334        1.0        0        
C2        C        0.964286        0.958334        1.0        0        
C3        C        0.0        0.979167        1.0        0        
C3        C        0.071429        0.979167        1.0        0        
C3        C        0.142857        0.979167        1.0        0        
C3        C        0.214286        0.979167        1.0        0        
C3        C        0.285714        0.979167        1.0        0        
C3        C        0.357143        0.979167        1.0        0        
C3        C        0.428571        0.979167        1.0        0        
C3        C        0.5        0.979167        1.0        0        
C3        C        0.571429        0.979167        1.0        0        
C3        C        0.642857        0.979167        1.0        0        
C3        C        0.714286        0.979167        1.0        0        
C3        C        0.785714        0.979167        1.0        0        
C3        C        0.857143        0.979167        1.0        0        
C3        C        0.928571        0.979167        1.0        0        
C4        C        0.035714        0.916666        1.0        0        
C4        C        0.107143        0.916666        1.0        0        
C4        C        0.178571        0.916666        1.0        0        
C4        C        0.25        0.916666        1.0        0        
C4        C        0.321429        0.916666        1.0        0        
C4        C        0.392857        0.916666        1.0        0        
C4        C        0.464286        0.916666        1.0        0        
C4        C        0.535714        0.916666        1.0        0        
C4        C        0.607143        0.916666        1.0        0        
C4        C        0.678571        0.916666        1.0        0        
C4        C        0.75        0.916666        1.0        0        
C4        C        0.821429        0.916666        1.0        0        
C4        C        0.892857        0.916666        1.0        0        
C4        C        0.964286        0.916666        1.0        0        
O_OH        O        0.071429        0.020834        0.28141868512110724        -0.64        
O_OH        O        0.071429        0.145834        0.28141868512110724        -0.64        
O_OH        O        0.071429        0.270834        0.28141868512110724        -0.64        
O_OH        O        0.071429        0.395833        0.28141868512110724        -0.64        
O_OH        O        0.071429        0.520834        0.28141868512110724        -0.64        
O_OH        O        0.071429        0.645834        0.28141868512110724        -0.64        
O_OH        O        0.214286        0.020834        0.28141868512110724        -0.64        
O_OH        O        0.214286        0.145834        0.28141868512110724        -0.64        
O_OH        O        0.214286        0.270834        0.28141868512110724        -0.64        
O_OH        O        0.214286        0.395833        0.28141868512110724        -0.64        
O_OH        O        0.214286        0.520834        0.28141868512110724        -0.64        
O_OH        O        0.214286        0.645834        0.28141868512110724        -0.64        
O_OH        O        0.785714        0.020834        0.28141868512110724        -0.64        
O_OH        O        0.785714        0.145834        0.28141868512110724        -0.64        
O_OH        O        0.785714        0.270834        0.28141868512110724        -0.64        
O_OH        O        0.785714        0.395833        0.28141868512110724        -0.64        
O_OH        O        0.785714        0.520834        0.28141868512110724        -0.64        
O_OH        O        0.785714        0.645834        0.28141868512110724        -0.64        
O_OH        O        0.928571        0.020834        0.28141868512110724        -0.64        
O_OH        O        0.928571        0.145834        0.28141868512110724        -0.64        
O_OH        O        0.928571        0.270834        0.28141868512110724        -0.64        
O_OH        O        0.928571        0.395833        0.28141868512110724        -0.64        
O_OH        O        0.928571        0.520834        0.28141868512110724        -0.64        
O_OH        O        0.928571        0.645834        0.28141868512110724        -0.64        
O_OH        O        0.071429        0.770834        0.28141868512110724        -0.64        
O_OH        O        0.214286        0.770834        0.28141868512110724        -0.64        
O_OH        O        0.785714        0.770834        0.28141868512110724        -0.64        
O_OH        O        0.928571        0.770834        0.28141868512110724        -0.64        
O_OH        O        0.071429        0.895834        0.28141868512110724        -0.64        
O_OH        O        0.214286        0.895834        0.28141868512110724        -0.64        
O_OH        O        0.785714        0.895834        0.28141868512110724        -0.64        
O_OH        O        0.928571        0.895834        0.28141868512110724        -0.64        
O_OH        O        0.071429        0.020834        0.7185813148788928        -0.64        
O_OH        O        0.071429        0.145834        0.7185813148788928        -0.64        
O_OH        O        0.071429        0.270834        0.7185813148788928        -0.64        
O_OH        O        0.071429        0.395833        0.7185813148788928        -0.64        
O_OH        O        0.071429        0.520834        0.7185813148788928        -0.64        
O_OH        O        0.071429        0.645834        0.7185813148788928        -0.64        
O_OH        O        0.214286        0.020834        0.7185813148788928        -0.64        
O_OH        O        0.214286        0.145834        0.7185813148788928        -0.64        
O_OH        O        0.214286        0.270834        0.7185813148788928        -0.64        
O_OH        O        0.214286        0.395833        0.7185813148788928        -0.64        
O_OH        O        0.214286        0.520834        0.7185813148788928        -0.64        
O_OH        O        0.214286        0.645834        0.7185813148788928        -0.64        
O_OH        O        0.785714        0.020834        0.7185813148788928        -0.64        
O_OH        O        0.785714        0.145834        0.7185813148788928        -0.64        
O_OH        O        0.785714        0.270834        0.7185813148788928        -0.64        
O_OH        O        0.785714        0.395833        0.7185813148788928        -0.64        
O_OH        O        0.785714        0.520834        0.7185813148788928        -0.64        
O_OH        O        0.785714        0.645834        0.7185813148788928        -0.64        
O_OH        O        0.928571        0.020834        0.7185813148788928        -0.64        
O_OH        O        0.928571        0.145834        0.7185813148788928        -0.64        
O_OH        O        0.928571        0.270834        0.7185813148788928        -0.64        
O_OH        O        0.928571        0.395833        0.7185813148788928        -0.64        
O_OH        O        0.928571        0.520834        0.7185813148788928        -0.64        
O_OH        O        0.928571        0.645834        0.7185813148788928        -0.64        
O_OH        O        0.071429        0.770834        0.7185813148788928        -0.64        
O_OH        O        0.214286        0.770834        0.7185813148788928        -0.64        
O_OH        O        0.785714        0.770834        0.7185813148788928        -0.64        
O_OH        O        0.928571        0.770834        0.7185813148788928        -0.64        
O_OH        O        0.071429        0.895834        0.7185813148788928        -0.64        
O_OH        O        0.214286        0.895834        0.7185813148788928        -0.64        
O_OH        O        0.785714        0.895834        0.7185813148788928        -0.64        
O_OH        O        0.928571        0.895834        0.7185813148788928        -0.64        
H_OH        H        0.07496898098541094        0.046975491589366515        0.29305186851211074        0.44        
H_OH        H        0.04661495935601184        0.1540413963860742        0.29305186851211074        0.44        
H_OH        H        0.05532600242401483        0.2916032422308179        0.29305186851211074        0.44        
H_OH        H        0.045323747456624056        0.39629924883397694        0.29305186851211074        0.44        
H_OH        H        0.07775786637566351        0.5464322412192555        0.29305186851211074        0.44        
H_OH        H        0.09351932375546006        0.6598991645190049        0.29305186851211074        0.44        
H_OH        H        0.2378162221813443        0.03226836819399418        0.29305186851211074        0.44        
H_OH        H        0.23936421512531603        0.1531757414633516        0.29305186851211074        0.44        
H_OH        H        0.23523714127380974        0.2865789133441258        0.29305186851211074        0.44        
H_OH        H        0.22588432046173296        0.4194718907030765        0.29305186851211074        0.44        
H_OH        H        0.22268946644688112        0.5458151355306574        0.29305186851211074        0.44        
H_OH        H        0.19832420715363305        0.6667142606248767        0.29305186851211074        0.44        
H_OH        H        0.7991812606102122        0.04343833918125858        0.29305186851211074        0.44        
H_OH        H        0.769625572282938        0.16661477016552526        0.29305186851211074        0.44        
H_OH        H        0.8114735701909087        0.27513829076386237        0.29305186851211074        0.44        
H_OH        H        0.8070312630725248        0.41106777077044226        0.29305186851211074        0.44        
H_OH        H        0.8066408744920259        0.5366118364879231        0.29305186851211074        0.44        
H_OH        H        0.810137906597772        0.6551602388393957        0.29305186851211074        0.44        
H_OH        H        0.9156675317870676        0.04377173157524304        0.29305186851211074        0.44        
H_OH        H        0.941142731937582        0.16895909598050807        0.29305186851211074        0.44        
H_OH        H        0.9391505893242502        0.29495598843020976        0.29305186851211074        0.44        
H_OH        H        0.9135190275737864        0.4173922560677813        0.29305186851211074        0.44        
H_OH        H        0.9470131514554371        0.5395112270107387        0.29305186851211074        0.44        
H_OH        H        0.9040668270326662        0.6549426795232831        0.29305186851211074        0.44        
H_OH        H        0.07009789431063702        0.7971848201414987        0.29305186851211074        0.44        
H_OH        H        0.19905476507862666        0.7922642959261652        0.29305186851211074        0.44        
H_OH        H        0.8095213339660872        0.7816667457770498        0.29305186851211074        0.44        
H_OH        H        0.9535669596400314        0.7784568289605913        0.29305186851211074        0.44        
H_OH        H        0.045919402522455514        0.9014567217872824        0.29305186851211074        0.44        
H_OH        H        0.20616680026272408        0.9209109561459526        0.29305186851211074        0.44        
H_OH        H        0.7646366791956385        0.9114059791567215        0.29305186851211074        0.44        
H_OH        H        0.9545443791170904        0.8985230585740535        0.29305186851211074        0.44        
H_OH        H        0.08569794603720984        0.04293033877823114        0.7069481314878893        0.44        
H_OH        H        0.07559848178584265        0.17188052371125292        0.7069481314878893        0.44        
H_OH        H        0.07467522490522964        0.2970144012607152        0.7069481314878893        0.44        
H_OH        H        0.07322880107087805        0.4221553690909584        0.7069481314878893        0.44        
H_OH        H        0.08915731859886478        0.5402042567315501        0.7069481314878893        0.44        
H_OH        H        0.07834975302683969        0.6712753270833246        0.7069481314878893        0.44        
H_OH        H        0.19922455386661003        0.0423864981728376        0.7069481314878893        0.44        
H_OH        H        0.22850622354693212        0.16796239196277546        0.7069481314878893        0.44        
H_OH        H        0.20513076052815188        0.2955438486710737        0.7069481314878893        0.44        
H_OH        H        0.24019969326580237        0.399056931395772        0.7069481314878893        0.44        
H_OH        H        0.18828063846271006        0.5231863017106949        0.7069481314878893        0.44        
H_OH        H        0.2359669998071676        0.6605352252535044        0.7069481314878893        0.44        
H_OH        H        0.8059177768166821        0.03754666772185476        0.7069481314878893        0.44        
H_OH        H        0.760576200655057        0.15296460578124246        0.7069481314878893        0.44        
H_OH        H        0.8095310584906991        0.2816448936029273        0.7069481314878893        0.44        
H_OH        H        0.7596337975293866        0.3970789539461369        0.7069481314878893        0.44        
H_OH        H        0.795732389420518        0.545199455381519        0.7069481314878893        0.44        
H_OH        H        0.8094185116002348        0.6568946246075867        0.7069481314878893        0.44        
H_OH        H        0.9478259279269553        0.038653898473899335        0.7069481314878893        0.44        
H_OH        H        0.9460483937983938        0.16543574613293158        0.7069481314878893        0.44        
H_OH        H        0.9546570206371026        0.27194864944124175        0.7069481314878893        0.44        
H_OH        H        0.9086431147286853        0.41288059218550494        0.7069481314878893        0.44        
H_OH        H        0.9247421253257875        0.5469338765149486        0.7069481314878893        0.44        
H_OH        H        0.946529167762023        0.6649868099530812        0.7069481314878893        0.44        
H_OH        H        0.045439604619187085        0.773360086085648        0.7069481314878893        0.44        
H_OH        H        0.21364600853525995        0.7972112043138933        0.7069481314878893        0.44        
H_OH        H        0.790095996850701        0.7968448723916617        0.7069481314878893        0.44        
H_OH        H        0.9045130094819301        0.7810856248157125        0.7069481314878893        0.44        
H_OH        H        0.08121986552591957        0.9202937264433004        0.7069481314878893        0.44        
H_OH        H        0.22211125472524787        0.921006208129823        0.7069481314878893        0.44        
H_OH        H        0.7677643425886398        0.914994955285947        0.7069481314878893        0.44        
H_OH        H        0.947350137845316        0.9141651032644484        0.7069481314878893        0.44        
