data_graphite_ortho

_audit_creation_method RASPA-1.0
_audit_creation_date 2012-2-3
_audit_author_name 'David Dubbeldam'

_cell_length_a    29.52    
_cell_length_b    38.34    
_cell_length_c    28.9    
_cell_angle_alpha 90
_cell_angle_beta  90
_cell_angle_gamma 90
_cell_volume      32708.93      

_symmetry_cell_setting          triclinic
_symmetry_space_group_name_Hall 'P 1'
_symmetry_space_group_name_H-M  'P 1'
_symmetry_Int_Tables_number     1

_symmetry_equiv_pos_as_xyz 'x,y,z'

loop_
_atom_site_label
_atom_site_type_symbol
_atom_site_fract_x
_atom_site_fract_y
_atom_site_fract_z
_atom_site_charge
C1        C        0.0        0.018519        0.0        0        
C2        C        0.041667        0.074075        0.0        0        
C3        C        0.0        0.092592        0.0        0        
C4        C        0.041667        0.037037        0.0        0        
C1        C        0.0        0.12963        0.0        0        
C2        C        0.041667        0.185185        0.0        0        
C3        C        0.0        0.203703        0.0        0        
C4        C        0.041667        0.148148        0.0        0        
C1        C        0.0        0.24074099999999998        0.0        0        
C2        C        0.041667        0.296297        0.0        0        
C3        C        0.0        0.314815        0.0        0        
C4        C        0.041667        0.259259        0.0        0        
C1        C        0.0        0.351852        0.0        0        
C2        C        0.041667        0.407408        0.0        0        
C3        C        0.0        0.42592500000000005        0.0        0        
C4        C        0.041667        0.37037        0.0        0        
C1        C        0.0        0.46296300000000007        0.0        0        
C2        C        0.041667        0.518519        0.0        0        
C3        C        0.0        0.537037        0.0        0        
C4        C        0.041667        0.481481        0.0        0        
C1        C        0.0        0.574075        0.0        0        
C2        C        0.041667        0.62963        0.0        0        
C3        C        0.0        0.648148        0.0        0        
C4        C        0.041667        0.592592        0.0        0        
C1        C        0.083333        0.018519        0.0        0        
C2        C        0.125        0.074075        0.0        0        
C3        C        0.083333        0.092592        0.0        0        
C4        C        0.125        0.037037        0.0        0        
C1        C        0.083333        0.12963        0.0        0        
C2        C        0.125        0.185185        0.0        0        
C3        C        0.083333        0.203703        0.0        0        
C4        C        0.125        0.148148        0.0        0        
C1        C        0.083333        0.24074099999999998        0.0        0        
C2        C        0.125        0.296297        0.0        0        
C3        C        0.083333        0.314815        0.0        0        
C4        C        0.125        0.259259        0.0        0        
C1        C        0.083333        0.351852        0.0        0        
C2        C        0.125        0.407408        0.0        0        
C3        C        0.083333        0.42592500000000005        0.0        0        
C4        C        0.125        0.37037        0.0        0        
C1        C        0.083333        0.46296300000000007        0.0        0        
C2        C        0.125        0.518519        0.0        0        
C3        C        0.083333        0.537037        0.0        0        
C4        C        0.125        0.481481        0.0        0        
C1        C        0.083333        0.574075        0.0        0        
C2        C        0.125        0.62963        0.0        0        
C3        C        0.083333        0.648148        0.0        0        
C4        C        0.125        0.592592        0.0        0        
C1        C        0.166667        0.018519        0.0        0        
C2        C        0.208333        0.074075        0.0        0        
C3        C        0.166667        0.092592        0.0        0        
C4        C        0.208333        0.037037        0.0        0        
C1        C        0.166667        0.12963        0.0        0        
C2        C        0.208333        0.185185        0.0        0        
C3        C        0.166667        0.203703        0.0        0        
C4        C        0.208333        0.148148        0.0        0        
C1        C        0.166667        0.24074099999999998        0.0        0        
C2        C        0.208333        0.296297        0.0        0        
C3        C        0.166667        0.314815        0.0        0        
C4        C        0.208333        0.259259        0.0        0        
C1        C        0.166667        0.351852        0.0        0        
C2        C        0.208333        0.407408        0.0        0        
C3        C        0.166667        0.42592500000000005        0.0        0        
C4        C        0.208333        0.37037        0.0        0        
C1        C        0.166667        0.46296300000000007        0.0        0        
C2        C        0.208333        0.518519        0.0        0        
C3        C        0.166667        0.537037        0.0        0        
C4        C        0.208333        0.481481        0.0        0        
C1        C        0.166667        0.574075        0.0        0        
C2        C        0.208333        0.62963        0.0        0        
C3        C        0.166667        0.648148        0.0        0        
C4        C        0.208333        0.592592        0.0        0        
C1        C        0.25        0.018519        0.0        0        
C2        C        0.291667        0.074075        0.0        0        
C3        C        0.25        0.092592        0.0        0        
C4        C        0.291667        0.037037        0.0        0        
C1        C        0.25        0.12963        0.0        0        
C2        C        0.291667        0.185185        0.0        0        
C3        C        0.25        0.203703        0.0        0        
C4        C        0.291667        0.148148        0.0        0        
C1        C        0.25        0.24074099999999998        0.0        0        
C2        C        0.291667        0.296297        0.0        0        
C3        C        0.25        0.314815        0.0        0        
C4        C        0.291667        0.259259        0.0        0        
C1        C        0.25        0.351852        0.0        0        
C2        C        0.291667        0.407408        0.0        0        
C3        C        0.25        0.42592500000000005        0.0        0        
C4        C        0.291667        0.37037        0.0        0        
C1        C        0.25        0.46296300000000007        0.0        0        
C2        C        0.291667        0.518519        0.0        0        
C3        C        0.25        0.537037        0.0        0        
C4        C        0.291667        0.481481        0.0        0        
C1        C        0.25        0.574075        0.0        0        
C2        C        0.291667        0.62963        0.0        0        
C3        C        0.25        0.648148        0.0        0        
C4        C        0.291667        0.592592        0.0        0        
C1        C        0.333333        0.018519        0.0        0        
C2        C        0.375        0.074075        0.0        0        
C3        C        0.333333        0.092592        0.0        0        
C4        C        0.375        0.037037        0.0        0        
C1        C        0.333333        0.12963        0.0        0        
C2        C        0.375        0.185185        0.0        0        
C3        C        0.333333        0.203703        0.0        0        
C4        C        0.375        0.148148        0.0        0        
C1        C        0.333333        0.24074099999999998        0.0        0        
C2        C        0.375        0.296297        0.0        0        
C3        C        0.333333        0.314815        0.0        0        
C4        C        0.375        0.259259        0.0        0        
C1        C        0.333333        0.351852        0.0        0        
C2        C        0.375        0.407408        0.0        0        
C3        C        0.333333        0.42592500000000005        0.0        0        
C4        C        0.375        0.37037        0.0        0        
C1        C        0.333333        0.46296300000000007        0.0        0        
C2        C        0.375        0.518519        0.0        0        
C3        C        0.333333        0.537037        0.0        0        
C4        C        0.375        0.481481        0.0        0        
C1        C        0.333333        0.574075        0.0        0        
C2        C        0.375        0.62963        0.0        0        
C3        C        0.333333        0.648148        0.0        0        
C4        C        0.375        0.592592        0.0        0        
C1        C        0.416667        0.018519        0.0        0        
C2        C        0.458333        0.074075        0.0        0        
C3        C        0.416667        0.092592        0.0        0        
C4        C        0.458333        0.037037        0.0        0        
C1        C        0.416667        0.12963        0.0        0        
C2        C        0.458333        0.185185        0.0        0        
C3        C        0.416667        0.203703        0.0        0        
C4        C        0.458333        0.148148        0.0        0        
C1        C        0.416667        0.24074099999999998        0.0        0        
C2        C        0.458333        0.296297        0.0        0        
C3        C        0.416667        0.314815        0.0        0        
C4        C        0.458333        0.259259        0.0        0        
C1        C        0.416667        0.351852        0.0        0        
C2        C        0.458333        0.407408        0.0        0        
C3        C        0.416667        0.42592500000000005        0.0        0        
C4        C        0.458333        0.37037        0.0        0        
C1        C        0.416667        0.46296300000000007        0.0        0        
C2        C        0.458333        0.518519        0.0        0        
C3        C        0.416667        0.537037        0.0        0        
C4        C        0.458333        0.481481        0.0        0        
C1        C        0.416667        0.574075        0.0        0        
C2        C        0.458333        0.62963        0.0        0        
C3        C        0.416667        0.648148        0.0        0        
C4        C        0.458333        0.592592        0.0        0        
C1        C        0.5        0.018519        0.0        0        
C2        C        0.541667        0.074075        0.0        0        
C3        C        0.5        0.092592        0.0        0        
C4        C        0.541667        0.037037        0.0        0        
C1        C        0.5        0.12963        0.0        0        
C2        C        0.541667        0.185185        0.0        0        
C3        C        0.5        0.203703        0.0        0        
C4        C        0.541667        0.148148        0.0        0        
C1        C        0.5        0.24074099999999998        0.0        0        
C2        C        0.541667        0.296297        0.0        0        
C3        C        0.5        0.314815        0.0        0        
C4        C        0.541667        0.259259        0.0        0        
C1        C        0.5        0.351852        0.0        0        
C2        C        0.541667        0.407408        0.0        0        
C3        C        0.5        0.42592500000000005        0.0        0        
C4        C        0.541667        0.37037        0.0        0        
C1        C        0.5        0.46296300000000007        0.0        0        
C2        C        0.541667        0.518519        0.0        0        
C3        C        0.5        0.537037        0.0        0        
C4        C        0.541667        0.481481        0.0        0        
C1        C        0.5        0.574075        0.0        0        
C2        C        0.541667        0.62963        0.0        0        
C3        C        0.5        0.648148        0.0        0        
C4        C        0.541667        0.592592        0.0        0        
C1        C        0.583333        0.018519        0.0        0        
C2        C        0.625        0.074075        0.0        0        
C3        C        0.583333        0.092592        0.0        0        
C4        C        0.625        0.037037        0.0        0        
C1        C        0.583333        0.12963        0.0        0        
C2        C        0.625        0.185185        0.0        0        
C3        C        0.583333        0.203703        0.0        0        
C4        C        0.625        0.148148        0.0        0        
C1        C        0.583333        0.24074099999999998        0.0        0        
C2        C        0.625        0.296297        0.0        0        
C3        C        0.583333        0.314815        0.0        0        
C4        C        0.625        0.259259        0.0        0        
C1        C        0.583333        0.351852        0.0        0        
C2        C        0.625        0.407408        0.0        0        
C3        C        0.583333        0.42592500000000005        0.0        0        
C4        C        0.625        0.37037        0.0        0        
C1        C        0.583333        0.46296300000000007        0.0        0        
C2        C        0.625        0.518519        0.0        0        
C3        C        0.583333        0.537037        0.0        0        
C4        C        0.625        0.481481        0.0        0        
C1        C        0.583333        0.574075        0.0        0        
C2        C        0.625        0.62963        0.0        0        
C3        C        0.583333        0.648148        0.0        0        
C4        C        0.625        0.592592        0.0        0        
C1        C        0.666667        0.018519        0.0        0        
C2        C        0.708333        0.074075        0.0        0        
C3        C        0.666667        0.092592        0.0        0        
C4        C        0.708333        0.037037        0.0        0        
C1        C        0.666667        0.12963        0.0        0        
C2        C        0.708333        0.185185        0.0        0        
C3        C        0.666667        0.203703        0.0        0        
C4        C        0.708333        0.148148        0.0        0        
C1        C        0.666667        0.24074099999999998        0.0        0        
C2        C        0.708333        0.296297        0.0        0        
C3        C        0.666667        0.314815        0.0        0        
C4        C        0.708333        0.259259        0.0        0        
C1        C        0.666667        0.351852        0.0        0        
C2        C        0.708333        0.407408        0.0        0        
C3        C        0.666667        0.42592500000000005        0.0        0        
C4        C        0.708333        0.37037        0.0        0        
C1        C        0.666667        0.46296300000000007        0.0        0        
C2        C        0.708333        0.518519        0.0        0        
C3        C        0.666667        0.537037        0.0        0        
C4        C        0.708333        0.481481        0.0        0        
C1        C        0.666667        0.574075        0.0        0        
C2        C        0.708333        0.62963        0.0        0        
C3        C        0.666667        0.648148        0.0        0        
C4        C        0.708333        0.592592        0.0        0        
C1        C        0.75        0.018519        0.0        0        
C2        C        0.7916670000000001        0.074075        0.0        0        
C3        C        0.75        0.092592        0.0        0        
C4        C        0.7916670000000001        0.037037        0.0        0        
C1        C        0.75        0.12963        0.0        0        
C2        C        0.7916670000000001        0.185185        0.0        0        
C3        C        0.75        0.203703        0.0        0        
C4        C        0.7916670000000001        0.148148        0.0        0        
C1        C        0.75        0.24074099999999998        0.0        0        
C2        C        0.7916670000000001        0.296297        0.0        0        
C3        C        0.75        0.314815        0.0        0        
C4        C        0.7916670000000001        0.259259        0.0        0        
C1        C        0.75        0.351852        0.0        0        
C2        C        0.7916670000000001        0.407408        0.0        0        
C3        C        0.75        0.42592500000000005        0.0        0        
C4        C        0.7916670000000001        0.37037        0.0        0        
C1        C        0.75        0.46296300000000007        0.0        0        
C2        C        0.7916670000000001        0.518519        0.0        0        
C3        C        0.75        0.537037        0.0        0        
C4        C        0.7916670000000001        0.481481        0.0        0        
C1        C        0.75        0.574075        0.0        0        
C2        C        0.7916670000000001        0.62963        0.0        0        
C3        C        0.75        0.648148        0.0        0        
C4        C        0.7916670000000001        0.592592        0.0        0        
C1        C        0.833333        0.018519        0.0        0        
C2        C        0.875        0.074075        0.0        0        
C3        C        0.833333        0.092592        0.0        0        
C4        C        0.875        0.037037        0.0        0        
C1        C        0.833333        0.12963        0.0        0        
C2        C        0.875        0.185185        0.0        0        
C3        C        0.833333        0.203703        0.0        0        
C4        C        0.875        0.148148        0.0        0        
C1        C        0.833333        0.24074099999999998        0.0        0        
C2        C        0.875        0.296297        0.0        0        
C3        C        0.833333        0.314815        0.0        0        
C4        C        0.875        0.259259        0.0        0        
C1        C        0.833333        0.351852        0.0        0        
C2        C        0.875        0.407408        0.0        0        
C3        C        0.833333        0.42592500000000005        0.0        0        
C4        C        0.875        0.37037        0.0        0        
C1        C        0.833333        0.46296300000000007        0.0        0        
C2        C        0.875        0.518519        0.0        0        
C3        C        0.833333        0.537037        0.0        0        
C4        C        0.875        0.481481        0.0        0        
C1        C        0.833333        0.574075        0.0        0        
C2        C        0.875        0.62963        0.0        0        
C3        C        0.833333        0.648148        0.0        0        
C4        C        0.875        0.592592        0.0        0        
C1        C        0.916667        0.018519        0.0        0        
C2        C        0.958333        0.074075        0.0        0        
C3        C        0.916667        0.092592        0.0        0        
C4        C        0.958333        0.037037        0.0        0        
C1        C        0.916667        0.12963        0.0        0        
C2        C        0.958333        0.185185        0.0        0        
C3        C        0.916667        0.203703        0.0        0        
C4        C        0.958333        0.148148        0.0        0        
C1        C        0.916667        0.24074099999999998        0.0        0        
C2        C        0.958333        0.296297        0.0        0        
C3        C        0.916667        0.314815        0.0        0        
C4        C        0.958333        0.259259        0.0        0        
C1        C        0.916667        0.351852        0.0        0        
C2        C        0.958333        0.407408        0.0        0        
C3        C        0.916667        0.42592500000000005        0.0        0        
C4        C        0.958333        0.37037        0.0        0        
C1        C        0.916667        0.46296300000000007        0.0        0        
C2        C        0.958333        0.518519        0.0        0        
C3        C        0.916667        0.537037        0.0        0        
C4        C        0.958333        0.481481        0.0        0        
C1        C        0.916667        0.574075        0.0        0        
C2        C        0.958333        0.62963        0.0        0        
C3        C        0.916667        0.648148        0.0        0        
C4        C        0.958333        0.592592        0.0        0        
C1        C        0.0        0.685186        0.0        0        
C1        C        0.083333        0.685186        0.0        0        
C1        C        0.166667        0.685186        0.0        0        
C1        C        0.25        0.685186        0.0        0        
C1        C        0.333333        0.685186        0.0        0        
C1        C        0.416667        0.685186        0.0        0        
C1        C        0.5        0.685186        0.0        0        
C1        C        0.583333        0.685186        0.0        0        
C1        C        0.666667        0.685186        0.0        0        
C1        C        0.75        0.685186        0.0        0        
C1        C        0.833333        0.685186        0.0        0        
C1        C        0.916667        0.685186        0.0        0        
C2        C        0.041667        0.740741        0.0        0        
C2        C        0.125        0.740741        0.0        0        
C2        C        0.208333        0.740741        0.0        0        
C2        C        0.291667        0.740741        0.0        0        
C2        C        0.375        0.740741        0.0        0        
C2        C        0.458333        0.740741        0.0        0        
C2        C        0.541667        0.740741        0.0        0        
C2        C        0.625        0.740741        0.0        0        
C2        C        0.708333        0.740741        0.0        0        
C2        C        0.7916670000000001        0.740741        0.0        0        
C2        C        0.875        0.740741        0.0        0        
C2        C        0.958333        0.740741        0.0        0        
C3        C        0.0        0.759259        0.0        0        
C3        C        0.083333        0.759259        0.0        0        
C3        C        0.166667        0.759259        0.0        0        
C3        C        0.25        0.759259        0.0        0        
C3        C        0.333333        0.759259        0.0        0        
C3        C        0.416667        0.759259        0.0        0        
C3        C        0.5        0.759259        0.0        0        
C3        C        0.583333        0.759259        0.0        0        
C3        C        0.666667        0.759259        0.0        0        
C3        C        0.75        0.759259        0.0        0        
C3        C        0.833333        0.759259        0.0        0        
C3        C        0.916667        0.759259        0.0        0        
C4        C        0.041667        0.703703        0.0        0        
C4        C        0.125        0.703703        0.0        0        
C4        C        0.208333        0.703703        0.0        0        
C4        C        0.291667        0.703703        0.0        0        
C4        C        0.375        0.703703        0.0        0        
C4        C        0.458333        0.703703        0.0        0        
C4        C        0.541667        0.703703        0.0        0        
C4        C        0.625        0.703703        0.0        0        
C4        C        0.708333        0.703703        0.0        0        
C4        C        0.7916670000000001        0.703703        0.0        0        
C4        C        0.875        0.703703        0.0        0        
C4        C        0.958333        0.703703        0.0        0        
C1        C        0.0        0.796297        0.0        0        
C1        C        0.083333        0.796297        0.0        0        
C1        C        0.166667        0.796297        0.0        0        
C1        C        0.25        0.796297        0.0        0        
C1        C        0.333333        0.796297        0.0        0        
C1        C        0.416667        0.796297        0.0        0        
C1        C        0.5        0.796297        0.0        0        
C1        C        0.583333        0.796297        0.0        0        
C1        C        0.666667        0.796297        0.0        0        
C1        C        0.75        0.796297        0.0        0        
C1        C        0.833333        0.796297        0.0        0        
C1        C        0.916667        0.796297        0.0        0        
C2        C        0.041667        0.851852        0.0        0        
C2        C        0.125        0.851852        0.0        0        
C2        C        0.208333        0.851852        0.0        0        
C2        C        0.291667        0.851852        0.0        0        
C2        C        0.375        0.851852        0.0        0        
C2        C        0.458333        0.851852        0.0        0        
C2        C        0.541667        0.851852        0.0        0        
C2        C        0.625        0.851852        0.0        0        
C2        C        0.708333        0.851852        0.0        0        
C2        C        0.7916670000000001        0.851852        0.0        0        
C2        C        0.875        0.851852        0.0        0        
C2        C        0.958333        0.851852        0.0        0        
C3        C        0.0        0.87037        0.0        0        
C3        C        0.083333        0.87037        0.0        0        
C3        C        0.166667        0.87037        0.0        0        
C3        C        0.25        0.87037        0.0        0        
C3        C        0.333333        0.87037        0.0        0        
C3        C        0.416667        0.87037        0.0        0        
C3        C        0.5        0.87037        0.0        0        
C3        C        0.583333        0.87037        0.0        0        
C3        C        0.666667        0.87037        0.0        0        
C3        C        0.75        0.87037        0.0        0        
C3        C        0.833333        0.87037        0.0        0        
C3        C        0.916667        0.87037        0.0        0        
C4        C        0.041667        0.814814        0.0        0        
C4        C        0.125        0.814814        0.0        0        
C4        C        0.208333        0.814814        0.0        0        
C4        C        0.291667        0.814814        0.0        0        
C4        C        0.375        0.814814        0.0        0        
C4        C        0.458333        0.814814        0.0        0        
C4        C        0.541667        0.814814        0.0        0        
C4        C        0.625        0.814814        0.0        0        
C4        C        0.708333        0.814814        0.0        0        
C4        C        0.7916670000000001        0.814814        0.0        0        
C4        C        0.875        0.814814        0.0        0        
C4        C        0.958333        0.814814        0.0        0        
C1        C        0.0        0.907408        0.0        0        
C1        C        0.083333        0.907408        0.0        0        
C1        C        0.166667        0.907408        0.0        0        
C1        C        0.25        0.907408        0.0        0        
C1        C        0.333333        0.907408        0.0        0        
C1        C        0.416667        0.907408        0.0        0        
C1        C        0.5        0.907408        0.0        0        
C1        C        0.583333        0.907408        0.0        0        
C1        C        0.666667        0.907408        0.0        0        
C1        C        0.75        0.907408        0.0        0        
C1        C        0.833333        0.907408        0.0        0        
C1        C        0.916667        0.907408        0.0        0        
C2        C        0.041667        0.962963        0.0        0        
C2        C        0.125        0.962963        0.0        0        
C2        C        0.208333        0.962963        0.0        0        
C2        C        0.291667        0.962963        0.0        0        
C2        C        0.375        0.962963        0.0        0        
C2        C        0.458333        0.962963        0.0        0        
C2        C        0.541667        0.962963        0.0        0        
C2        C        0.625        0.962963        0.0        0        
C2        C        0.708333        0.962963        0.0        0        
C2        C        0.7916670000000001        0.962963        0.0        0        
C2        C        0.875        0.962963        0.0        0        
C2        C        0.958333        0.962963        0.0        0        
C3        C        0.0        0.9814809999999999        0.0        0        
C3        C        0.083333        0.9814809999999999        0.0        0        
C3        C        0.166667        0.9814809999999999        0.0        0        
C3        C        0.25        0.9814809999999999        0.0        0        
C3        C        0.333333        0.9814809999999999        0.0        0        
C3        C        0.416667        0.9814809999999999        0.0        0        
C3        C        0.5        0.9814809999999999        0.0        0        
C3        C        0.583333        0.9814809999999999        0.0        0        
C3        C        0.666667        0.9814809999999999        0.0        0        
C3        C        0.75        0.9814809999999999        0.0        0        
C3        C        0.833333        0.9814809999999999        0.0        0        
C3        C        0.916667        0.9814809999999999        0.0        0        
C4        C        0.041667        0.925925        0.0        0        
C4        C        0.125        0.925925        0.0        0        
C4        C        0.208333        0.925925        0.0        0        
C4        C        0.291667        0.925925        0.0        0        
C4        C        0.375        0.925925        0.0        0        
C4        C        0.458333        0.925925        0.0        0        
C4        C        0.541667        0.925925        0.0        0        
C4        C        0.625        0.925925        0.0        0        
C4        C        0.708333        0.925925        0.0        0        
C4        C        0.7916670000000001        0.925925        0.0        0        
C4        C        0.875        0.925925        0.0        0        
C4        C        0.958333        0.925925        0.0        0        
C1        C        0.0        0.018519        0.115917        0        
C2        C        0.041667        0.074075        0.115917        0        
C3        C        0.0        0.092592        0.115917        0        
C4        C        0.041667        0.037037        0.115917        0        
C1        C        0.0        0.12963        0.115917        0        
C2        C        0.041667        0.185185        0.115917        0        
C3        C        0.0        0.203703        0.115917        0        
C4        C        0.041667        0.148148        0.115917        0        
C1        C        0.0        0.24074099999999998        0.115917        0        
C2        C        0.041667        0.296297        0.115917        0        
C3        C        0.0        0.314815        0.115917        0        
C4        C        0.041667        0.259259        0.115917        0        
C1        C        0.0        0.351852        0.115917        0        
C2        C        0.041667        0.407408        0.115917        0        
C3        C        0.0        0.42592500000000005        0.115917        0        
C4        C        0.041667        0.37037        0.115917        0        
C1        C        0.0        0.46296300000000007        0.115917        0        
C2        C        0.041667        0.518519        0.115917        0        
C3        C        0.0        0.537037        0.115917        0        
C4        C        0.041667        0.481481        0.115917        0        
C1        C        0.0        0.574075        0.115917        0        
C2        C        0.041667        0.62963        0.115917        0        
C3        C        0.0        0.648148        0.115917        0        
C4        C        0.041667        0.592592        0.115917        0        
C1        C        0.083333        0.018519        0.115917        0        
C2        C        0.125        0.074075        0.115917        0        
C3        C        0.083333        0.092592        0.115917        0        
C4        C        0.125        0.037037        0.115917        0        
C1        C        0.083333        0.12963        0.115917        0        
C2        C        0.125        0.185185        0.115917        0        
C3        C        0.083333        0.203703        0.115917        0        
C4        C        0.125        0.148148        0.115917        0        
C1        C        0.083333        0.24074099999999998        0.115917        0        
C2        C        0.125        0.296297        0.115917        0        
C3        C        0.083333        0.314815        0.115917        0        
C4        C        0.125        0.259259        0.115917        0        
C1        C        0.083333        0.351852        0.115917        0        
C2        C        0.125        0.407408        0.115917        0        
C3        C        0.083333        0.42592500000000005        0.115917        0        
C4        C        0.125        0.37037        0.115917        0        
C1        C        0.083333        0.46296300000000007        0.115917        0        
C2        C        0.125        0.518519        0.115917        0        
C3        C        0.083333        0.537037        0.115917        0        
C4        C        0.125        0.481481        0.115917        0        
C1        C        0.083333        0.574075        0.115917        0        
C2        C        0.125        0.62963        0.115917        0        
C3        C        0.083333        0.648148        0.115917        0        
C4        C        0.125        0.592592        0.115917        0        
C1        C        0.166667        0.018519        0.115917        0        
C2        C        0.208333        0.074075        0.115917        0        
C3        C        0.166667        0.092592        0.115917        0        
C4        C        0.208333        0.037037        0.115917        0        
C1        C        0.166667        0.12963        0.115917        0        
C2        C        0.208333        0.185185        0.115917        0        
C3        C        0.166667        0.203703        0.115917        0        
C4        C        0.208333        0.148148        0.115917        0        
C1        C        0.166667        0.24074099999999998        0.115917        0        
C2        C        0.208333        0.296297        0.115917        0        
C3        C        0.166667        0.314815        0.115917        0        
C4        C        0.208333        0.259259        0.115917        0        
C1        C        0.166667        0.351852        0.115917        0        
C2        C        0.208333        0.407408        0.115917        0        
C3        C        0.166667        0.42592500000000005        0.115917        0        
C4        C        0.208333        0.37037        0.115917        0        
C1        C        0.166667        0.46296300000000007        0.115917        0        
C2        C        0.208333        0.518519        0.115917        0        
C3        C        0.166667        0.537037        0.115917        0        
C4        C        0.208333        0.481481        0.115917        0        
C1        C        0.166667        0.574075        0.115917        0        
C2        C        0.208333        0.62963        0.115917        0        
C3        C        0.166667        0.648148        0.115917        0        
C4        C        0.208333        0.592592        0.115917        0        
C1        C        0.25        0.018519        0.115917        0        
C2        C        0.291667        0.074075        0.115917        0        
C3        C        0.25        0.092592        0.115917        0        
C4        C        0.291667        0.037037        0.115917        0        
C1        C        0.25        0.12963        0.115917        0        
C2        C        0.291667        0.185185        0.115917        0        
C3        C        0.25        0.203703        0.115917        0        
C4        C        0.291667        0.148148        0.115917        0        
C1        C        0.25        0.24074099999999998        0.115917        0        
C2        C        0.291667        0.296297        0.115917        0        
C3        C        0.25        0.314815        0.115917        0        
C4        C        0.291667        0.259259        0.115917        0        
C1        C        0.25        0.351852        0.115917        0        
C2        C        0.291667        0.407408        0.115917        0        
C3        C        0.25        0.42592500000000005        0.115917        0        
C4        C        0.291667        0.37037        0.115917        0        
C1        C        0.25        0.46296300000000007        0.115917        0        
C2        C        0.291667        0.518519        0.115917        0        
C3        C        0.25        0.537037        0.115917        0        
C4        C        0.291667        0.481481        0.115917        0        
C1        C        0.25        0.574075        0.115917        0        
C2        C        0.291667        0.62963        0.115917        0        
C3        C        0.25        0.648148        0.115917        0        
C4        C        0.291667        0.592592        0.115917        0        
C1        C        0.333333        0.018519        0.115917        0        
C2        C        0.375        0.074075        0.115917        0        
C3        C        0.333333        0.092592        0.115917        0        
C4        C        0.375        0.037037        0.115917        0        
C1        C        0.333333        0.12963        0.115917        0        
C2        C        0.375        0.185185        0.115917        0        
C3        C        0.333333        0.203703        0.115917        0        
C4        C        0.375        0.148148        0.115917        0        
C1        C        0.333333        0.24074099999999998        0.115917        0        
C2        C        0.375        0.296297        0.115917        0        
C3        C        0.333333        0.314815        0.115917        0        
C4        C        0.375        0.259259        0.115917        0        
C1        C        0.333333        0.351852        0.115917        0        
C2        C        0.375        0.407408        0.115917        0        
C3        C        0.333333        0.42592500000000005        0.115917        0        
C4        C        0.375        0.37037        0.115917        0        
C1        C        0.333333        0.46296300000000007        0.115917        0        
C2        C        0.375        0.518519        0.115917        0        
C3        C        0.333333        0.537037        0.115917        0        
C4        C        0.375        0.481481        0.115917        0        
C1        C        0.333333        0.574075        0.115917        0        
C2        C        0.375        0.62963        0.115917        0        
C3        C        0.333333        0.648148        0.115917        0        
C4        C        0.375        0.592592        0.115917        0        
C1        C        0.416667        0.018519        0.115917        0        
C2        C        0.458333        0.074075        0.115917        0        
C3        C        0.416667        0.092592        0.115917        0        
C4        C        0.458333        0.037037        0.115917        0        
C1        C        0.416667        0.12963        0.115917        0        
C2        C        0.458333        0.185185        0.115917        0        
C3        C        0.416667        0.203703        0.115917        0        
C4        C        0.458333        0.148148        0.115917        0        
C1        C        0.416667        0.24074099999999998        0.115917        0        
C2        C        0.458333        0.296297        0.115917        0        
C3        C        0.416667        0.314815        0.115917        0        
C4        C        0.458333        0.259259        0.115917        0        
C1        C        0.416667        0.351852        0.115917        0        
C2        C        0.458333        0.407408        0.115917        0        
C3        C        0.416667        0.42592500000000005        0.115917        0        
C4        C        0.458333        0.37037        0.115917        0        
C1        C        0.416667        0.46296300000000007        0.115917        0        
C2        C        0.458333        0.518519        0.115917        0        
C3        C        0.416667        0.537037        0.115917        0        
C4        C        0.458333        0.481481        0.115917        0        
C1        C        0.416667        0.574075        0.115917        0        
C2        C        0.458333        0.62963        0.115917        0        
C3        C        0.416667        0.648148        0.115917        0        
C4        C        0.458333        0.592592        0.115917        0        
C1        C        0.5        0.018519        0.115917        0        
C2        C        0.541667        0.074075        0.115917        0        
C3        C        0.5        0.092592        0.115917        0        
C4        C        0.541667        0.037037        0.115917        0        
C1        C        0.5        0.12963        0.115917        0        
C2        C        0.541667        0.185185        0.115917        0        
C3        C        0.5        0.203703        0.115917        0        
C4        C        0.541667        0.148148        0.115917        0        
C1        C        0.5        0.24074099999999998        0.115917        0        
C2        C        0.541667        0.296297        0.115917        0        
C3        C        0.5        0.314815        0.115917        0        
C4        C        0.541667        0.259259        0.115917        0        
C1        C        0.5        0.351852        0.115917        0        
C2        C        0.541667        0.407408        0.115917        0        
C3        C        0.5        0.42592500000000005        0.115917        0        
C4        C        0.541667        0.37037        0.115917        0        
C1        C        0.5        0.46296300000000007        0.115917        0        
C2        C        0.541667        0.518519        0.115917        0        
C3        C        0.5        0.537037        0.115917        0        
C4        C        0.541667        0.481481        0.115917        0        
C1        C        0.5        0.574075        0.115917        0        
C2        C        0.541667        0.62963        0.115917        0        
C3        C        0.5        0.648148        0.115917        0        
C4        C        0.541667        0.592592        0.115917        0        
C1        C        0.583333        0.018519        0.115917        0        
C2        C        0.625        0.074075        0.115917        0        
C3        C        0.583333        0.092592        0.115917        0        
C4        C        0.625        0.037037        0.115917        0        
C1        C        0.583333        0.12963        0.115917        0        
C2        C        0.625        0.185185        0.115917        0        
C3        C        0.583333        0.203703        0.115917        0        
C4        C        0.625        0.148148        0.115917        0        
C1        C        0.583333        0.24074099999999998        0.115917        0        
C2        C        0.625        0.296297        0.115917        0        
C3        C        0.583333        0.314815        0.115917        0        
C4        C        0.625        0.259259        0.115917        0        
C1        C        0.583333        0.351852        0.115917        0        
C2        C        0.625        0.407408        0.115917        0        
C3        C        0.583333        0.42592500000000005        0.115917        0        
C4        C        0.625        0.37037        0.115917        0        
C1        C        0.583333        0.46296300000000007        0.115917        0        
C2        C        0.625        0.518519        0.115917        0        
C3        C        0.583333        0.537037        0.115917        0        
C4        C        0.625        0.481481        0.115917        0        
C1        C        0.583333        0.574075        0.115917        0        
C2        C        0.625        0.62963        0.115917        0        
C3        C        0.583333        0.648148        0.115917        0        
C4        C        0.625        0.592592        0.115917        0        
C1        C        0.666667        0.018519        0.115917        0        
C2        C        0.708333        0.074075        0.115917        0        
C3        C        0.666667        0.092592        0.115917        0        
C4        C        0.708333        0.037037        0.115917        0        
C1        C        0.666667        0.12963        0.115917        0        
C2        C        0.708333        0.185185        0.115917        0        
C3        C        0.666667        0.203703        0.115917        0        
C4        C        0.708333        0.148148        0.115917        0        
C1        C        0.666667        0.24074099999999998        0.115917        0        
C2        C        0.708333        0.296297        0.115917        0        
C3        C        0.666667        0.314815        0.115917        0        
C4        C        0.708333        0.259259        0.115917        0        
C1        C        0.666667        0.351852        0.115917        0        
C2        C        0.708333        0.407408        0.115917        0        
C3        C        0.666667        0.42592500000000005        0.115917        0        
C4        C        0.708333        0.37037        0.115917        0        
C1        C        0.666667        0.46296300000000007        0.115917        0        
C2        C        0.708333        0.518519        0.115917        0        
C3        C        0.666667        0.537037        0.115917        0        
C4        C        0.708333        0.481481        0.115917        0        
C1        C        0.666667        0.574075        0.115917        0        
C2        C        0.708333        0.62963        0.115917        0        
C3        C        0.666667        0.648148        0.115917        0        
C4        C        0.708333        0.592592        0.115917        0        
C1        C        0.75        0.018519        0.115917        0        
C2        C        0.7916670000000001        0.074075        0.115917        0        
C3        C        0.75        0.092592        0.115917        0        
C4        C        0.7916670000000001        0.037037        0.115917        0        
C1        C        0.75        0.12963        0.115917        0        
C2        C        0.7916670000000001        0.185185        0.115917        0        
C3        C        0.75        0.203703        0.115917        0        
C4        C        0.7916670000000001        0.148148        0.115917        0        
C1        C        0.75        0.24074099999999998        0.115917        0        
C2        C        0.7916670000000001        0.296297        0.115917        0        
C3        C        0.75        0.314815        0.115917        0        
C4        C        0.7916670000000001        0.259259        0.115917        0        
C1        C        0.75        0.351852        0.115917        0        
C2        C        0.7916670000000001        0.407408        0.115917        0        
C3        C        0.75        0.42592500000000005        0.115917        0        
C4        C        0.7916670000000001        0.37037        0.115917        0        
C1        C        0.75        0.46296300000000007        0.115917        0        
C2        C        0.7916670000000001        0.518519        0.115917        0        
C3        C        0.75        0.537037        0.115917        0        
C4        C        0.7916670000000001        0.481481        0.115917        0        
C1        C        0.75        0.574075        0.115917        0        
C2        C        0.7916670000000001        0.62963        0.115917        0        
C3        C        0.75        0.648148        0.115917        0        
C4        C        0.7916670000000001        0.592592        0.115917        0        
C1        C        0.833333        0.018519        0.115917        0        
C2        C        0.875        0.074075        0.115917        0        
C3        C        0.833333        0.092592        0.115917        0        
C4        C        0.875        0.037037        0.115917        0        
C1        C        0.833333        0.12963        0.115917        0        
C2        C        0.875        0.185185        0.115917        0        
C3        C        0.833333        0.203703        0.115917        0        
C4        C        0.875        0.148148        0.115917        0        
C1        C        0.833333        0.24074099999999998        0.115917        0        
C2        C        0.875        0.296297        0.115917        0        
C3        C        0.833333        0.314815        0.115917        0        
C4        C        0.875        0.259259        0.115917        0        
C1        C        0.833333        0.351852        0.115917        0        
C2        C        0.875        0.407408        0.115917        0        
C3        C        0.833333        0.42592500000000005        0.115917        0        
C4        C        0.875        0.37037        0.115917        0        
C1        C        0.833333        0.46296300000000007        0.115917        0        
C2        C        0.875        0.518519        0.115917        0        
C3        C        0.833333        0.537037        0.115917        0        
C4        C        0.875        0.481481        0.115917        0        
C1        C        0.833333        0.574075        0.115917        0        
C2        C        0.875        0.62963        0.115917        0        
C3        C        0.833333        0.648148        0.115917        0        
C4        C        0.875        0.592592        0.115917        0        
C1        C        0.916667        0.018519        0.115917        0        
C2        C        0.958333        0.074075        0.115917        0        
C3        C        0.916667        0.092592        0.115917        0        
C4        C        0.958333        0.037037        0.115917        0        
C1        C        0.916667        0.12963        0.115917        0        
C2        C        0.958333        0.185185        0.115917        0        
C3        C        0.916667        0.203703        0.115917        0        
C4        C        0.958333        0.148148        0.115917        0        
C1        C        0.916667        0.24074099999999998        0.115917        0        
C2        C        0.958333        0.296297        0.115917        0        
C3        C        0.916667        0.314815        0.115917        0        
C4        C        0.958333        0.259259        0.115917        0        
C1        C        0.916667        0.351852        0.115917        0        
C2        C        0.958333        0.407408        0.115917        0        
C3        C        0.916667        0.42592500000000005        0.115917        0        
C4        C        0.958333        0.37037        0.115917        0        
C1        C        0.916667        0.46296300000000007        0.115917        0        
C2        C        0.958333        0.518519        0.115917        0        
C3        C        0.916667        0.537037        0.115917        0        
C4        C        0.958333        0.481481        0.115917        0        
C1        C        0.916667        0.574075        0.115917        0        
C2        C        0.958333        0.62963        0.115917        0        
C3        C        0.916667        0.648148        0.115917        0        
C4        C        0.958333        0.592592        0.115917        0        
C1        C        0.0        0.685186        0.115917        0        
C1        C        0.083333        0.685186        0.115917        0        
C1        C        0.166667        0.685186        0.115917        0        
C1        C        0.25        0.685186        0.115917        0        
C1        C        0.333333        0.685186        0.115917        0        
C1        C        0.416667        0.685186        0.115917        0        
C1        C        0.5        0.685186        0.115917        0        
C1        C        0.583333        0.685186        0.115917        0        
C1        C        0.666667        0.685186        0.115917        0        
C1        C        0.75        0.685186        0.115917        0        
C1        C        0.833333        0.685186        0.115917        0        
C1        C        0.916667        0.685186        0.115917        0        
C2        C        0.041667        0.740741        0.115917        0        
C2        C        0.125        0.740741        0.115917        0        
C2        C        0.208333        0.740741        0.115917        0        
C2        C        0.291667        0.740741        0.115917        0        
C2        C        0.375        0.740741        0.115917        0        
C2        C        0.458333        0.740741        0.115917        0        
C2        C        0.541667        0.740741        0.115917        0        
C2        C        0.625        0.740741        0.115917        0        
C2        C        0.708333        0.740741        0.115917        0        
C2        C        0.7916670000000001        0.740741        0.115917        0        
C2        C        0.875        0.740741        0.115917        0        
C2        C        0.958333        0.740741        0.115917        0        
C3        C        0.0        0.759259        0.115917        0        
C3        C        0.083333        0.759259        0.115917        0        
C3        C        0.166667        0.759259        0.115917        0        
C3        C        0.25        0.759259        0.115917        0        
C3        C        0.333333        0.759259        0.115917        0        
C3        C        0.416667        0.759259        0.115917        0        
C3        C        0.5        0.759259        0.115917        0        
C3        C        0.583333        0.759259        0.115917        0        
C3        C        0.666667        0.759259        0.115917        0        
C3        C        0.75        0.759259        0.115917        0        
C3        C        0.833333        0.759259        0.115917        0        
C3        C        0.916667        0.759259        0.115917        0        
C4        C        0.041667        0.703703        0.115917        0        
C4        C        0.125        0.703703        0.115917        0        
C4        C        0.208333        0.703703        0.115917        0        
C4        C        0.291667        0.703703        0.115917        0        
C4        C        0.375        0.703703        0.115917        0        
C4        C        0.458333        0.703703        0.115917        0        
C4        C        0.541667        0.703703        0.115917        0        
C4        C        0.625        0.703703        0.115917        0        
C4        C        0.708333        0.703703        0.115917        0        
C4        C        0.7916670000000001        0.703703        0.115917        0        
C4        C        0.875        0.703703        0.115917        0        
C4        C        0.958333        0.703703        0.115917        0        
C1        C        0.0        0.796297        0.115917        0        
C1        C        0.083333        0.796297        0.115917        0        
C1        C        0.166667        0.796297        0.115917        0        
C1        C        0.25        0.796297        0.115917        0        
C1        C        0.333333        0.796297        0.115917        0        
C1        C        0.416667        0.796297        0.115917        0        
C1        C        0.5        0.796297        0.115917        0        
C1        C        0.583333        0.796297        0.115917        0        
C1        C        0.666667        0.796297        0.115917        0        
C1        C        0.75        0.796297        0.115917        0        
C1        C        0.833333        0.796297        0.115917        0        
C1        C        0.916667        0.796297        0.115917        0        
C2        C        0.041667        0.851852        0.115917        0        
C2        C        0.125        0.851852        0.115917        0        
C2        C        0.208333        0.851852        0.115917        0        
C2        C        0.291667        0.851852        0.115917        0        
C2        C        0.375        0.851852        0.115917        0        
C2        C        0.458333        0.851852        0.115917        0        
C2        C        0.541667        0.851852        0.115917        0        
C2        C        0.625        0.851852        0.115917        0        
C2        C        0.708333        0.851852        0.115917        0        
C2        C        0.7916670000000001        0.851852        0.115917        0        
C2        C        0.875        0.851852        0.115917        0        
C2        C        0.958333        0.851852        0.115917        0        
C3        C        0.0        0.87037        0.115917        0        
C3        C        0.083333        0.87037        0.115917        0        
C3        C        0.166667        0.87037        0.115917        0        
C3        C        0.25        0.87037        0.115917        0        
C3        C        0.333333        0.87037        0.115917        0        
C3        C        0.416667        0.87037        0.115917        0        
C3        C        0.5        0.87037        0.115917        0        
C3        C        0.583333        0.87037        0.115917        0        
C3        C        0.666667        0.87037        0.115917        0        
C3        C        0.75        0.87037        0.115917        0        
C3        C        0.833333        0.87037        0.115917        0        
C3        C        0.916667        0.87037        0.115917        0        
C4        C        0.041667        0.814814        0.115917        0        
C4        C        0.125        0.814814        0.115917        0        
C4        C        0.208333        0.814814        0.115917        0        
C4        C        0.291667        0.814814        0.115917        0        
C4        C        0.375        0.814814        0.115917        0        
C4        C        0.458333        0.814814        0.115917        0        
C4        C        0.541667        0.814814        0.115917        0        
C4        C        0.625        0.814814        0.115917        0        
C4        C        0.708333        0.814814        0.115917        0        
C4        C        0.7916670000000001        0.814814        0.115917        0        
C4        C        0.875        0.814814        0.115917        0        
C4        C        0.958333        0.814814        0.115917        0        
C1        C        0.0        0.907408        0.115917        0        
C1        C        0.083333        0.907408        0.115917        0        
C1        C        0.166667        0.907408        0.115917        0        
C1        C        0.25        0.907408        0.115917        0        
C1        C        0.333333        0.907408        0.115917        0        
C1        C        0.416667        0.907408        0.115917        0        
C1        C        0.5        0.907408        0.115917        0        
C1        C        0.583333        0.907408        0.115917        0        
C1        C        0.666667        0.907408        0.115917        0        
C1        C        0.75        0.907408        0.115917        0        
C1        C        0.833333        0.907408        0.115917        0        
C1        C        0.916667        0.907408        0.115917        0        
C2        C        0.041667        0.962963        0.115917        0        
C2        C        0.125        0.962963        0.115917        0        
C2        C        0.208333        0.962963        0.115917        0        
C2        C        0.291667        0.962963        0.115917        0        
C2        C        0.375        0.962963        0.115917        0        
C2        C        0.458333        0.962963        0.115917        0        
C2        C        0.541667        0.962963        0.115917        0        
C2        C        0.625        0.962963        0.115917        0        
C2        C        0.708333        0.962963        0.115917        0        
C2        C        0.7916670000000001        0.962963        0.115917        0        
C2        C        0.875        0.962963        0.115917        0        
C2        C        0.958333        0.962963        0.115917        0        
C3        C        0.0        0.9814809999999999        0.115917        0        
C3        C        0.083333        0.9814809999999999        0.115917        0        
C3        C        0.166667        0.9814809999999999        0.115917        0        
C3        C        0.25        0.9814809999999999        0.115917        0        
C3        C        0.333333        0.9814809999999999        0.115917        0        
C3        C        0.416667        0.9814809999999999        0.115917        0        
C3        C        0.5        0.9814809999999999        0.115917        0        
C3        C        0.583333        0.9814809999999999        0.115917        0        
C3        C        0.666667        0.9814809999999999        0.115917        0        
C3        C        0.75        0.9814809999999999        0.115917        0        
C3        C        0.833333        0.9814809999999999        0.115917        0        
C3        C        0.916667        0.9814809999999999        0.115917        0        
C4        C        0.041667        0.925925        0.115917        0        
C4        C        0.125        0.925925        0.115917        0        
C4        C        0.208333        0.925925        0.115917        0        
C4        C        0.291667        0.925925        0.115917        0        
C4        C        0.375        0.925925        0.115917        0        
C4        C        0.458333        0.925925        0.115917        0        
C4        C        0.541667        0.925925        0.115917        0        
C4        C        0.625        0.925925        0.115917        0        
C4        C        0.708333        0.925925        0.115917        0        
C4        C        0.7916670000000001        0.925925        0.115917        0        
C4        C        0.875        0.925925        0.115917        0        
C4        C        0.958333        0.925925        0.115917        0        
C1        C        0.0        0.018519        0.231834        0        
C2        C        0.041667        0.074075        0.231834        0        
C3        C        0.0        0.092592        0.231834        0        
C4        C        0.041667        0.037037        0.231834        0        
C1        C        0.0        0.12963        0.231834        0        
C2        C        0.041667        0.185185        0.231834        0        
C3        C        0.0        0.203703        0.231834        0        
C4        C        0.041667        0.148148        0.231834        0        
C1        C        0.0        0.24074099999999998        0.231834        0        
C2        C        0.041667        0.296297        0.231834        0        
C3        C        0.0        0.314815        0.231834        0        
C4        C        0.041667        0.259259        0.231834        0        
C1        C        0.0        0.351852        0.231834        0        
C2        C        0.041667        0.407408        0.231834        0        
C3        C        0.0        0.42592500000000005        0.231834        0        
C4        C        0.041667        0.37037        0.231834        0        
C1        C        0.0        0.46296300000000007        0.231834        0        
C2        C        0.041667        0.518519        0.231834        0        
C3        C        0.0        0.537037        0.231834        0        
C4        C        0.041667        0.481481        0.231834        0        
C1        C        0.0        0.574075        0.231834        0        
C2        C        0.041667        0.62963        0.231834        0        
C3        C        0.0        0.648148        0.231834        0        
C4        C        0.041667        0.592592        0.231834        0        
C_FG        C        0.083333        0.018519        0.231834        0.2        
C2        C        0.125        0.074075        0.231834        0        
C3        C        0.083333        0.092592        0.231834        0        
C4        C        0.125        0.037037        0.231834        0        
C_FG        C        0.083333        0.12963        0.231834        0.2        
C2        C        0.125        0.185185        0.231834        0        
C3        C        0.083333        0.203703        0.231834        0        
C4        C        0.125        0.148148        0.231834        0        
C_FG        C        0.083333        0.24074099999999998        0.231834        0.2        
C2        C        0.125        0.296297        0.231834        0        
C3        C        0.083333        0.314815        0.231834        0        
C4        C        0.125        0.259259        0.231834        0        
C_FG        C        0.083333        0.351852        0.231834        0.2        
C2        C        0.125        0.407408        0.231834        0        
C3        C        0.083333        0.42592500000000005        0.231834        0        
C4        C        0.125        0.37037        0.231834        0        
C_FG        C        0.083333        0.46296300000000007        0.231834        0.2        
C2        C        0.125        0.518519        0.231834        0        
C3        C        0.083333        0.537037        0.231834        0        
C4        C        0.125        0.481481        0.231834        0        
C_FG        C        0.083333        0.574075        0.231834        0.2        
C2        C        0.125        0.62963        0.231834        0        
C3        C        0.083333        0.648148        0.231834        0        
C4        C        0.125        0.592592        0.231834        0        
C1        C        0.166667        0.018519        0.231834        0        
C2        C        0.208333        0.074075        0.231834        0        
C3        C        0.166667        0.092592        0.231834        0        
C4        C        0.208333        0.037037        0.231834        0        
C1        C        0.166667        0.12963        0.231834        0        
C2        C        0.208333        0.185185        0.231834        0        
C3        C        0.166667        0.203703        0.231834        0        
C4        C        0.208333        0.148148        0.231834        0        
C1        C        0.166667        0.24074099999999998        0.231834        0        
C2        C        0.208333        0.296297        0.231834        0        
C3        C        0.166667        0.314815        0.231834        0        
C4        C        0.208333        0.259259        0.231834        0        
C1        C        0.166667        0.351852        0.231834        0        
C2        C        0.208333        0.407408        0.231834        0        
C3        C        0.166667        0.42592500000000005        0.231834        0        
C4        C        0.208333        0.37037        0.231834        0        
C1        C        0.166667        0.46296300000000007        0.231834        0        
C2        C        0.208333        0.518519        0.231834        0        
C3        C        0.166667        0.537037        0.231834        0        
C4        C        0.208333        0.481481        0.231834        0        
C1        C        0.166667        0.574075        0.231834        0        
C2        C        0.208333        0.62963        0.231834        0        
C3        C        0.166667        0.648148        0.231834        0        
C4        C        0.208333        0.592592        0.231834        0        
C_FG        C        0.25        0.018519        0.231834        0.2        
C2        C        0.291667        0.074075        0.231834        0        
C3        C        0.25        0.092592        0.231834        0        
C4        C        0.291667        0.037037        0.231834        0        
C_FG        C        0.25        0.12963        0.231834        0.2        
C2        C        0.291667        0.185185        0.231834        0        
C3        C        0.25        0.203703        0.231834        0        
C4        C        0.291667        0.148148        0.231834        0        
C_FG        C        0.25        0.24074099999999998        0.231834        0.2        
C2        C        0.291667        0.296297        0.231834        0        
C3        C        0.25        0.314815        0.231834        0        
C4        C        0.291667        0.259259        0.231834        0        
C_FG        C        0.25        0.351852        0.231834        0.2        
C2        C        0.291667        0.407408        0.231834        0        
C3        C        0.25        0.42592500000000005        0.231834        0        
C4        C        0.291667        0.37037        0.231834        0        
C_FG        C        0.25        0.46296300000000007        0.231834        0.2        
C2        C        0.291667        0.518519        0.231834        0        
C3        C        0.25        0.537037        0.231834        0        
C4        C        0.291667        0.481481        0.231834        0        
C_FG        C        0.25        0.574075        0.231834        0.2        
C2        C        0.291667        0.62963        0.231834        0        
C3        C        0.25        0.648148        0.231834        0        
C4        C        0.291667        0.592592        0.231834        0        
C1        C        0.333333        0.018519        0.231834        0        
C2        C        0.375        0.074075        0.231834        0        
C3        C        0.333333        0.092592        0.231834        0        
C4        C        0.375        0.037037        0.231834        0        
C1        C        0.333333        0.12963        0.231834        0        
C2        C        0.375        0.185185        0.231834        0        
C3        C        0.333333        0.203703        0.231834        0        
C4        C        0.375        0.148148        0.231834        0        
C1        C        0.333333        0.24074099999999998        0.231834        0        
C2        C        0.375        0.296297        0.231834        0        
C3        C        0.333333        0.314815        0.231834        0        
C4        C        0.375        0.259259        0.231834        0        
C1        C        0.333333        0.351852        0.231834        0        
C2        C        0.375        0.407408        0.231834        0        
C3        C        0.333333        0.42592500000000005        0.231834        0        
C4        C        0.375        0.37037        0.231834        0        
C1        C        0.333333        0.46296300000000007        0.231834        0        
C2        C        0.375        0.518519        0.231834        0        
C3        C        0.333333        0.537037        0.231834        0        
C4        C        0.375        0.481481        0.231834        0        
C1        C        0.333333        0.574075        0.231834        0        
C2        C        0.375        0.62963        0.231834        0        
C3        C        0.333333        0.648148        0.231834        0        
C4        C        0.375        0.592592        0.231834        0        
C1        C        0.416667        0.018519        0.231834        0        
C2        C        0.458333        0.074075        0.231834        0        
C3        C        0.416667        0.092592        0.231834        0        
C4        C        0.458333        0.037037        0.231834        0        
C1        C        0.416667        0.12963        0.231834        0        
C2        C        0.458333        0.185185        0.231834        0        
C3        C        0.416667        0.203703        0.231834        0        
C4        C        0.458333        0.148148        0.231834        0        
C1        C        0.416667        0.24074099999999998        0.231834        0        
C2        C        0.458333        0.296297        0.231834        0        
C3        C        0.416667        0.314815        0.231834        0        
C4        C        0.458333        0.259259        0.231834        0        
C1        C        0.416667        0.351852        0.231834        0        
C2        C        0.458333        0.407408        0.231834        0        
C3        C        0.416667        0.42592500000000005        0.231834        0        
C4        C        0.458333        0.37037        0.231834        0        
C1        C        0.416667        0.46296300000000007        0.231834        0        
C2        C        0.458333        0.518519        0.231834        0        
C3        C        0.416667        0.537037        0.231834        0        
C4        C        0.458333        0.481481        0.231834        0        
C1        C        0.416667        0.574075        0.231834        0        
C2        C        0.458333        0.62963        0.231834        0        
C3        C        0.416667        0.648148        0.231834        0        
C4        C        0.458333        0.592592        0.231834        0        
C1        C        0.5        0.018519        0.231834        0        
C2        C        0.541667        0.074075        0.231834        0        
C3        C        0.5        0.092592        0.231834        0        
C4        C        0.541667        0.037037        0.231834        0        
C1        C        0.5        0.12963        0.231834        0        
C2        C        0.541667        0.185185        0.231834        0        
C3        C        0.5        0.203703        0.231834        0        
C4        C        0.541667        0.148148        0.231834        0        
C1        C        0.5        0.24074099999999998        0.231834        0        
C2        C        0.541667        0.296297        0.231834        0        
C3        C        0.5        0.314815        0.231834        0        
C4        C        0.541667        0.259259        0.231834        0        
C1        C        0.5        0.351852        0.231834        0        
C2        C        0.541667        0.407408        0.231834        0        
C3        C        0.5        0.42592500000000005        0.231834        0        
C4        C        0.541667        0.37037        0.231834        0        
C1        C        0.5        0.46296300000000007        0.231834        0        
C2        C        0.541667        0.518519        0.231834        0        
C3        C        0.5        0.537037        0.231834        0        
C4        C        0.541667        0.481481        0.231834        0        
C1        C        0.5        0.574075        0.231834        0        
C2        C        0.541667        0.62963        0.231834        0        
C3        C        0.5        0.648148        0.231834        0        
C4        C        0.541667        0.592592        0.231834        0        
C1        C        0.583333        0.018519        0.231834        0        
C2        C        0.625        0.074075        0.231834        0        
C3        C        0.583333        0.092592        0.231834        0        
C4        C        0.625        0.037037        0.231834        0        
C1        C        0.583333        0.12963        0.231834        0        
C2        C        0.625        0.185185        0.231834        0        
C3        C        0.583333        0.203703        0.231834        0        
C4        C        0.625        0.148148        0.231834        0        
C1        C        0.583333        0.24074099999999998        0.231834        0        
C2        C        0.625        0.296297        0.231834        0        
C3        C        0.583333        0.314815        0.231834        0        
C4        C        0.625        0.259259        0.231834        0        
C1        C        0.583333        0.351852        0.231834        0        
C2        C        0.625        0.407408        0.231834        0        
C3        C        0.583333        0.42592500000000005        0.231834        0        
C4        C        0.625        0.37037        0.231834        0        
C1        C        0.583333        0.46296300000000007        0.231834        0        
C2        C        0.625        0.518519        0.231834        0        
C3        C        0.583333        0.537037        0.231834        0        
C4        C        0.625        0.481481        0.231834        0        
C1        C        0.583333        0.574075        0.231834        0        
C2        C        0.625        0.62963        0.231834        0        
C3        C        0.583333        0.648148        0.231834        0        
C4        C        0.625        0.592592        0.231834        0        
C1        C        0.666667        0.018519        0.231834        0        
C2        C        0.708333        0.074075        0.231834        0        
C3        C        0.666667        0.092592        0.231834        0        
C4        C        0.708333        0.037037        0.231834        0        
C1        C        0.666667        0.12963        0.231834        0        
C2        C        0.708333        0.185185        0.231834        0        
C3        C        0.666667        0.203703        0.231834        0        
C4        C        0.708333        0.148148        0.231834        0        
C1        C        0.666667        0.24074099999999998        0.231834        0        
C2        C        0.708333        0.296297        0.231834        0        
C3        C        0.666667        0.314815        0.231834        0        
C4        C        0.708333        0.259259        0.231834        0        
C1        C        0.666667        0.351852        0.231834        0        
C2        C        0.708333        0.407408        0.231834        0        
C3        C        0.666667        0.42592500000000005        0.231834        0        
C4        C        0.708333        0.37037        0.231834        0        
C1        C        0.666667        0.46296300000000007        0.231834        0        
C2        C        0.708333        0.518519        0.231834        0        
C3        C        0.666667        0.537037        0.231834        0        
C4        C        0.708333        0.481481        0.231834        0        
C1        C        0.666667        0.574075        0.231834        0        
C2        C        0.708333        0.62963        0.231834        0        
C3        C        0.666667        0.648148        0.231834        0        
C4        C        0.708333        0.592592        0.231834        0        
C_FG        C        0.75        0.018519        0.231834        0.2        
C2        C        0.7916670000000001        0.074075        0.231834        0        
C3        C        0.75        0.092592        0.231834        0        
C4        C        0.7916670000000001        0.037037        0.231834        0        
C_FG        C        0.75        0.12963        0.231834        0.2        
C2        C        0.7916670000000001        0.185185        0.231834        0        
C3        C        0.75        0.203703        0.231834        0        
C4        C        0.7916670000000001        0.148148        0.231834        0        
C_FG        C        0.75        0.24074099999999998        0.231834        0.2        
C2        C        0.7916670000000001        0.296297        0.231834        0        
C3        C        0.75        0.314815        0.231834        0        
C4        C        0.7916670000000001        0.259259        0.231834        0        
C_FG        C        0.75        0.351852        0.231834        0.2        
C2        C        0.7916670000000001        0.407408        0.231834        0        
C3        C        0.75        0.42592500000000005        0.231834        0        
C4        C        0.7916670000000001        0.37037        0.231834        0        
C_FG        C        0.75        0.46296300000000007        0.231834        0.2        
C2        C        0.7916670000000001        0.518519        0.231834        0        
C3        C        0.75        0.537037        0.231834        0        
C4        C        0.7916670000000001        0.481481        0.231834        0        
C_FG        C        0.75        0.574075        0.231834        0.2        
C2        C        0.7916670000000001        0.62963        0.231834        0        
C3        C        0.75        0.648148        0.231834        0        
C4        C        0.7916670000000001        0.592592        0.231834        0        
C1        C        0.833333        0.018519        0.231834        0        
C2        C        0.875        0.074075        0.231834        0        
C3        C        0.833333        0.092592        0.231834        0        
C4        C        0.875        0.037037        0.231834        0        
C1        C        0.833333        0.12963        0.231834        0        
C2        C        0.875        0.185185        0.231834        0        
C3        C        0.833333        0.203703        0.231834        0        
C4        C        0.875        0.148148        0.231834        0        
C1        C        0.833333        0.24074099999999998        0.231834        0        
C2        C        0.875        0.296297        0.231834        0        
C3        C        0.833333        0.314815        0.231834        0        
C4        C        0.875        0.259259        0.231834        0        
C1        C        0.833333        0.351852        0.231834        0        
C2        C        0.875        0.407408        0.231834        0        
C3        C        0.833333        0.42592500000000005        0.231834        0        
C4        C        0.875        0.37037        0.231834        0        
C1        C        0.833333        0.46296300000000007        0.231834        0        
C2        C        0.875        0.518519        0.231834        0        
C3        C        0.833333        0.537037        0.231834        0        
C4        C        0.875        0.481481        0.231834        0        
C1        C        0.833333        0.574075        0.231834        0        
C2        C        0.875        0.62963        0.231834        0        
C3        C        0.833333        0.648148        0.231834        0        
C4        C        0.875        0.592592        0.231834        0        
C_FG        C        0.916667        0.018519        0.231834        0.2        
C2        C        0.958333        0.074075        0.231834        0        
C3        C        0.916667        0.092592        0.231834        0        
C4        C        0.958333        0.037037        0.231834        0        
C_FG        C        0.916667        0.12963        0.231834        0.2        
C2        C        0.958333        0.185185        0.231834        0        
C3        C        0.916667        0.203703        0.231834        0        
C4        C        0.958333        0.148148        0.231834        0        
C_FG        C        0.916667        0.24074099999999998        0.231834        0.2        
C2        C        0.958333        0.296297        0.231834        0        
C3        C        0.916667        0.314815        0.231834        0        
C4        C        0.958333        0.259259        0.231834        0        
C_FG        C        0.916667        0.351852        0.231834        0.2        
C2        C        0.958333        0.407408        0.231834        0        
C3        C        0.916667        0.42592500000000005        0.231834        0        
C4        C        0.958333        0.37037        0.231834        0        
C_FG        C        0.916667        0.46296300000000007        0.231834        0.2        
C2        C        0.958333        0.518519        0.231834        0        
C3        C        0.916667        0.537037        0.231834        0        
C4        C        0.958333        0.481481        0.231834        0        
C_FG        C        0.916667        0.574075        0.231834        0.2        
C2        C        0.958333        0.62963        0.231834        0        
C3        C        0.916667        0.648148        0.231834        0        
C4        C        0.958333        0.592592        0.231834        0        
C1        C        0.0        0.685186        0.231834        0        
C_FG        C        0.083333        0.685186        0.231834        0.2        
C1        C        0.166667        0.685186        0.231834        0        
C_FG        C        0.25        0.685186        0.231834        0.2        
C1        C        0.333333        0.685186        0.231834        0        
C1        C        0.416667        0.685186        0.231834        0        
C1        C        0.5        0.685186        0.231834        0        
C1        C        0.583333        0.685186        0.231834        0        
C1        C        0.666667        0.685186        0.231834        0        
C_FG        C        0.75        0.685186        0.231834        0.2        
C1        C        0.833333        0.685186        0.231834        0        
C_FG        C        0.916667        0.685186        0.231834        0.2        
C2        C        0.041667        0.740741        0.231834        0        
C2        C        0.125        0.740741        0.231834        0        
C2        C        0.208333        0.740741        0.231834        0        
C2        C        0.291667        0.740741        0.231834        0        
C2        C        0.375        0.740741        0.231834        0        
C2        C        0.458333        0.740741        0.231834        0        
C2        C        0.541667        0.740741        0.231834        0        
C2        C        0.625        0.740741        0.231834        0        
C2        C        0.708333        0.740741        0.231834        0        
C2        C        0.7916670000000001        0.740741        0.231834        0        
C2        C        0.875        0.740741        0.231834        0        
C2        C        0.958333        0.740741        0.231834        0        
C3        C        0.0        0.759259        0.231834        0        
C3        C        0.083333        0.759259        0.231834        0        
C3        C        0.166667        0.759259        0.231834        0        
C3        C        0.25        0.759259        0.231834        0        
C3        C        0.333333        0.759259        0.231834        0        
C3        C        0.416667        0.759259        0.231834        0        
C3        C        0.5        0.759259        0.231834        0        
C3        C        0.583333        0.759259        0.231834        0        
C3        C        0.666667        0.759259        0.231834        0        
C3        C        0.75        0.759259        0.231834        0        
C3        C        0.833333        0.759259        0.231834        0        
C3        C        0.916667        0.759259        0.231834        0        
C4        C        0.041667        0.703703        0.231834        0        
C4        C        0.125        0.703703        0.231834        0        
C4        C        0.208333        0.703703        0.231834        0        
C4        C        0.291667        0.703703        0.231834        0        
C4        C        0.375        0.703703        0.231834        0        
C4        C        0.458333        0.703703        0.231834        0        
C4        C        0.541667        0.703703        0.231834        0        
C4        C        0.625        0.703703        0.231834        0        
C4        C        0.708333        0.703703        0.231834        0        
C4        C        0.7916670000000001        0.703703        0.231834        0        
C4        C        0.875        0.703703        0.231834        0        
C4        C        0.958333        0.703703        0.231834        0        
C1        C        0.0        0.796297        0.231834        0        
C_FG        C        0.083333        0.796297        0.231834        0.2        
C1        C        0.166667        0.796297        0.231834        0        
C_FG        C        0.25        0.796297        0.231834        0.2        
C1        C        0.333333        0.796297        0.231834        0        
C1        C        0.416667        0.796297        0.231834        0        
C1        C        0.5        0.796297        0.231834        0        
C1        C        0.583333        0.796297        0.231834        0        
C1        C        0.666667        0.796297        0.231834        0        
C_FG        C        0.75        0.796297        0.231834        0.2        
C1        C        0.833333        0.796297        0.231834        0        
C_FG        C        0.916667        0.796297        0.231834        0.2        
C2        C        0.041667        0.851852        0.231834        0        
C2        C        0.125        0.851852        0.231834        0        
C2        C        0.208333        0.851852        0.231834        0        
C2        C        0.291667        0.851852        0.231834        0        
C2        C        0.375        0.851852        0.231834        0        
C2        C        0.458333        0.851852        0.231834        0        
C2        C        0.541667        0.851852        0.231834        0        
C2        C        0.625        0.851852        0.231834        0        
C2        C        0.708333        0.851852        0.231834        0        
C2        C        0.7916670000000001        0.851852        0.231834        0        
C2        C        0.875        0.851852        0.231834        0        
C2        C        0.958333        0.851852        0.231834        0        
C3        C        0.0        0.87037        0.231834        0        
C3        C        0.083333        0.87037        0.231834        0        
C3        C        0.166667        0.87037        0.231834        0        
C3        C        0.25        0.87037        0.231834        0        
C3        C        0.333333        0.87037        0.231834        0        
C3        C        0.416667        0.87037        0.231834        0        
C3        C        0.5        0.87037        0.231834        0        
C3        C        0.583333        0.87037        0.231834        0        
C3        C        0.666667        0.87037        0.231834        0        
C3        C        0.75        0.87037        0.231834        0        
C3        C        0.833333        0.87037        0.231834        0        
C3        C        0.916667        0.87037        0.231834        0        
C4        C        0.041667        0.814814        0.231834        0        
C4        C        0.125        0.814814        0.231834        0        
C4        C        0.208333        0.814814        0.231834        0        
C4        C        0.291667        0.814814        0.231834        0        
C4        C        0.375        0.814814        0.231834        0        
C4        C        0.458333        0.814814        0.231834        0        
C4        C        0.541667        0.814814        0.231834        0        
C4        C        0.625        0.814814        0.231834        0        
C4        C        0.708333        0.814814        0.231834        0        
C4        C        0.7916670000000001        0.814814        0.231834        0        
C4        C        0.875        0.814814        0.231834        0        
C4        C        0.958333        0.814814        0.231834        0        
C1        C        0.0        0.907408        0.231834        0        
C_FG        C        0.083333        0.907408        0.231834        0.2        
C1        C        0.166667        0.907408        0.231834        0        
C_FG        C        0.25        0.907408        0.231834        0.2        
C1        C        0.333333        0.907408        0.231834        0        
C1        C        0.416667        0.907408        0.231834        0        
C1        C        0.5        0.907408        0.231834        0        
C1        C        0.583333        0.907408        0.231834        0        
C1        C        0.666667        0.907408        0.231834        0        
C_FG        C        0.75        0.907408        0.231834        0.2        
C1        C        0.833333        0.907408        0.231834        0        
C_FG        C        0.916667        0.907408        0.231834        0.2        
C2        C        0.041667        0.962963        0.231834        0        
C2        C        0.125        0.962963        0.231834        0        
C2        C        0.208333        0.962963        0.231834        0        
C2        C        0.291667        0.962963        0.231834        0        
C2        C        0.375        0.962963        0.231834        0        
C2        C        0.458333        0.962963        0.231834        0        
C2        C        0.541667        0.962963        0.231834        0        
C2        C        0.625        0.962963        0.231834        0        
C2        C        0.708333        0.962963        0.231834        0        
C2        C        0.7916670000000001        0.962963        0.231834        0        
C2        C        0.875        0.962963        0.231834        0        
C2        C        0.958333        0.962963        0.231834        0        
C3        C        0.0        0.9814809999999999        0.231834        0        
C3        C        0.083333        0.9814809999999999        0.231834        0        
C3        C        0.166667        0.9814809999999999        0.231834        0        
C3        C        0.25        0.9814809999999999        0.231834        0        
C3        C        0.333333        0.9814809999999999        0.231834        0        
C3        C        0.416667        0.9814809999999999        0.231834        0        
C3        C        0.5        0.9814809999999999        0.231834        0        
C3        C        0.583333        0.9814809999999999        0.231834        0        
C3        C        0.666667        0.9814809999999999        0.231834        0        
C3        C        0.75        0.9814809999999999        0.231834        0        
C3        C        0.833333        0.9814809999999999        0.231834        0        
C3        C        0.916667        0.9814809999999999        0.231834        0        
C4        C        0.041667        0.925925        0.231834        0        
C4        C        0.125        0.925925        0.231834        0        
C4        C        0.208333        0.925925        0.231834        0        
C4        C        0.291667        0.925925        0.231834        0        
C4        C        0.375        0.925925        0.231834        0        
C4        C        0.458333        0.925925        0.231834        0        
C4        C        0.541667        0.925925        0.231834        0        
C4        C        0.625        0.925925        0.231834        0        
C4        C        0.708333        0.925925        0.231834        0        
C4        C        0.7916670000000001        0.925925        0.231834        0        
C4        C        0.875        0.925925        0.231834        0        
C4        C        0.958333        0.925925        0.231834        0        
C1        C        0.0        0.018519        0.768166        0        
C2        C        0.041667        0.074075        0.768166        0        
C3        C        0.0        0.092592        0.768166        0        
C4        C        0.041667        0.037037        0.768166        0        
C1        C        0.0        0.12963        0.768166        0        
C2        C        0.041667        0.185185        0.768166        0        
C3        C        0.0        0.203703        0.768166        0        
C4        C        0.041667        0.148148        0.768166        0        
C1        C        0.0        0.24074099999999998        0.768166        0        
C2        C        0.041667        0.296297        0.768166        0        
C3        C        0.0        0.314815        0.768166        0        
C4        C        0.041667        0.259259        0.768166        0        
C1        C        0.0        0.351852        0.768166        0        
C2        C        0.041667        0.407408        0.768166        0        
C3        C        0.0        0.42592500000000005        0.768166        0        
C4        C        0.041667        0.37037        0.768166        0        
C1        C        0.0        0.46296300000000007        0.768166        0        
C2        C        0.041667        0.518519        0.768166        0        
C3        C        0.0        0.537037        0.768166        0        
C4        C        0.041667        0.481481        0.768166        0        
C1        C        0.0        0.574075        0.768166        0        
C2        C        0.041667        0.62963        0.768166        0        
C3        C        0.0        0.648148        0.768166        0        
C4        C        0.041667        0.592592        0.768166        0        
C_FG        C        0.083333        0.018519        0.768166        0.2        
C2        C        0.125        0.074075        0.768166        0        
C3        C        0.083333        0.092592        0.768166        0        
C4        C        0.125        0.037037        0.768166        0        
C_FG        C        0.083333        0.12963        0.768166        0.2        
C2        C        0.125        0.185185        0.768166        0        
C3        C        0.083333        0.203703        0.768166        0        
C4        C        0.125        0.148148        0.768166        0        
C_FG        C        0.083333        0.24074099999999998        0.768166        0.2        
C2        C        0.125        0.296297        0.768166        0        
C3        C        0.083333        0.314815        0.768166        0        
C4        C        0.125        0.259259        0.768166        0        
C_FG        C        0.083333        0.351852        0.768166        0.2        
C2        C        0.125        0.407408        0.768166        0        
C3        C        0.083333        0.42592500000000005        0.768166        0        
C4        C        0.125        0.37037        0.768166        0        
C_FG        C        0.083333        0.46296300000000007        0.768166        0.2        
C2        C        0.125        0.518519        0.768166        0        
C3        C        0.083333        0.537037        0.768166        0        
C4        C        0.125        0.481481        0.768166        0        
C_FG        C        0.083333        0.574075        0.768166        0.2        
C2        C        0.125        0.62963        0.768166        0        
C3        C        0.083333        0.648148        0.768166        0        
C4        C        0.125        0.592592        0.768166        0        
C1        C        0.166667        0.018519        0.768166        0        
C2        C        0.208333        0.074075        0.768166        0        
C3        C        0.166667        0.092592        0.768166        0        
C4        C        0.208333        0.037037        0.768166        0        
C1        C        0.166667        0.12963        0.768166        0        
C2        C        0.208333        0.185185        0.768166        0        
C3        C        0.166667        0.203703        0.768166        0        
C4        C        0.208333        0.148148        0.768166        0        
C1        C        0.166667        0.24074099999999998        0.768166        0        
C2        C        0.208333        0.296297        0.768166        0        
C3        C        0.166667        0.314815        0.768166        0        
C4        C        0.208333        0.259259        0.768166        0        
C1        C        0.166667        0.351852        0.768166        0        
C2        C        0.208333        0.407408        0.768166        0        
C3        C        0.166667        0.42592500000000005        0.768166        0        
C4        C        0.208333        0.37037        0.768166        0        
C1        C        0.166667        0.46296300000000007        0.768166        0        
C2        C        0.208333        0.518519        0.768166        0        
C3        C        0.166667        0.537037        0.768166        0        
C4        C        0.208333        0.481481        0.768166        0        
C1        C        0.166667        0.574075        0.768166        0        
C2        C        0.208333        0.62963        0.768166        0        
C3        C        0.166667        0.648148        0.768166        0        
C4        C        0.208333        0.592592        0.768166        0        
C_FG        C        0.25        0.018519        0.768166        0.2        
C2        C        0.291667        0.074075        0.768166        0        
C3        C        0.25        0.092592        0.768166        0        
C4        C        0.291667        0.037037        0.768166        0        
C_FG        C        0.25        0.12963        0.768166        0.2        
C2        C        0.291667        0.185185        0.768166        0        
C3        C        0.25        0.203703        0.768166        0        
C4        C        0.291667        0.148148        0.768166        0        
C_FG        C        0.25        0.24074099999999998        0.768166        0.2        
C2        C        0.291667        0.296297        0.768166        0        
C3        C        0.25        0.314815        0.768166        0        
C4        C        0.291667        0.259259        0.768166        0        
C_FG        C        0.25        0.351852        0.768166        0.2        
C2        C        0.291667        0.407408        0.768166        0        
C3        C        0.25        0.42592500000000005        0.768166        0        
C4        C        0.291667        0.37037        0.768166        0        
C_FG        C        0.25        0.46296300000000007        0.768166        0.2        
C2        C        0.291667        0.518519        0.768166        0        
C3        C        0.25        0.537037        0.768166        0        
C4        C        0.291667        0.481481        0.768166        0        
C_FG        C        0.25        0.574075        0.768166        0.2        
C2        C        0.291667        0.62963        0.768166        0        
C3        C        0.25        0.648148        0.768166        0        
C4        C        0.291667        0.592592        0.768166        0        
C1        C        0.333333        0.018519        0.768166        0        
C2        C        0.375        0.074075        0.768166        0        
C3        C        0.333333        0.092592        0.768166        0        
C4        C        0.375        0.037037        0.768166        0        
C1        C        0.333333        0.12963        0.768166        0        
C2        C        0.375        0.185185        0.768166        0        
C3        C        0.333333        0.203703        0.768166        0        
C4        C        0.375        0.148148        0.768166        0        
C1        C        0.333333        0.24074099999999998        0.768166        0        
C2        C        0.375        0.296297        0.768166        0        
C3        C        0.333333        0.314815        0.768166        0        
C4        C        0.375        0.259259        0.768166        0        
C1        C        0.333333        0.351852        0.768166        0        
C2        C        0.375        0.407408        0.768166        0        
C3        C        0.333333        0.42592500000000005        0.768166        0        
C4        C        0.375        0.37037        0.768166        0        
C1        C        0.333333        0.46296300000000007        0.768166        0        
C2        C        0.375        0.518519        0.768166        0        
C3        C        0.333333        0.537037        0.768166        0        
C4        C        0.375        0.481481        0.768166        0        
C1        C        0.333333        0.574075        0.768166        0        
C2        C        0.375        0.62963        0.768166        0        
C3        C        0.333333        0.648148        0.768166        0        
C4        C        0.375        0.592592        0.768166        0        
C1        C        0.416667        0.018519        0.768166        0        
C2        C        0.458333        0.074075        0.768166        0        
C3        C        0.416667        0.092592        0.768166        0        
C4        C        0.458333        0.037037        0.768166        0        
C1        C        0.416667        0.12963        0.768166        0        
C2        C        0.458333        0.185185        0.768166        0        
C3        C        0.416667        0.203703        0.768166        0        
C4        C        0.458333        0.148148        0.768166        0        
C1        C        0.416667        0.24074099999999998        0.768166        0        
C2        C        0.458333        0.296297        0.768166        0        
C3        C        0.416667        0.314815        0.768166        0        
C4        C        0.458333        0.259259        0.768166        0        
C1        C        0.416667        0.351852        0.768166        0        
C2        C        0.458333        0.407408        0.768166        0        
C3        C        0.416667        0.42592500000000005        0.768166        0        
C4        C        0.458333        0.37037        0.768166        0        
C1        C        0.416667        0.46296300000000007        0.768166        0        
C2        C        0.458333        0.518519        0.768166        0        
C3        C        0.416667        0.537037        0.768166        0        
C4        C        0.458333        0.481481        0.768166        0        
C1        C        0.416667        0.574075        0.768166        0        
C2        C        0.458333        0.62963        0.768166        0        
C3        C        0.416667        0.648148        0.768166        0        
C4        C        0.458333        0.592592        0.768166        0        
C1        C        0.5        0.018519        0.768166        0        
C2        C        0.541667        0.074075        0.768166        0        
C3        C        0.5        0.092592        0.768166        0        
C4        C        0.541667        0.037037        0.768166        0        
C1        C        0.5        0.12963        0.768166        0        
C2        C        0.541667        0.185185        0.768166        0        
C3        C        0.5        0.203703        0.768166        0        
C4        C        0.541667        0.148148        0.768166        0        
C1        C        0.5        0.24074099999999998        0.768166        0        
C2        C        0.541667        0.296297        0.768166        0        
C3        C        0.5        0.314815        0.768166        0        
C4        C        0.541667        0.259259        0.768166        0        
C1        C        0.5        0.351852        0.768166        0        
C2        C        0.541667        0.407408        0.768166        0        
C3        C        0.5        0.42592500000000005        0.768166        0        
C4        C        0.541667        0.37037        0.768166        0        
C1        C        0.5        0.46296300000000007        0.768166        0        
C2        C        0.541667        0.518519        0.768166        0        
C3        C        0.5        0.537037        0.768166        0        
C4        C        0.541667        0.481481        0.768166        0        
C1        C        0.5        0.574075        0.768166        0        
C2        C        0.541667        0.62963        0.768166        0        
C3        C        0.5        0.648148        0.768166        0        
C4        C        0.541667        0.592592        0.768166        0        
C1        C        0.583333        0.018519        0.768166        0        
C2        C        0.625        0.074075        0.768166        0        
C3        C        0.583333        0.092592        0.768166        0        
C4        C        0.625        0.037037        0.768166        0        
C1        C        0.583333        0.12963        0.768166        0        
C2        C        0.625        0.185185        0.768166        0        
C3        C        0.583333        0.203703        0.768166        0        
C4        C        0.625        0.148148        0.768166        0        
C1        C        0.583333        0.24074099999999998        0.768166        0        
C2        C        0.625        0.296297        0.768166        0        
C3        C        0.583333        0.314815        0.768166        0        
C4        C        0.625        0.259259        0.768166        0        
C1        C        0.583333        0.351852        0.768166        0        
C2        C        0.625        0.407408        0.768166        0        
C3        C        0.583333        0.42592500000000005        0.768166        0        
C4        C        0.625        0.37037        0.768166        0        
C1        C        0.583333        0.46296300000000007        0.768166        0        
C2        C        0.625        0.518519        0.768166        0        
C3        C        0.583333        0.537037        0.768166        0        
C4        C        0.625        0.481481        0.768166        0        
C1        C        0.583333        0.574075        0.768166        0        
C2        C        0.625        0.62963        0.768166        0        
C3        C        0.583333        0.648148        0.768166        0        
C4        C        0.625        0.592592        0.768166        0        
C1        C        0.666667        0.018519        0.768166        0        
C2        C        0.708333        0.074075        0.768166        0        
C3        C        0.666667        0.092592        0.768166        0        
C4        C        0.708333        0.037037        0.768166        0        
C1        C        0.666667        0.12963        0.768166        0        
C2        C        0.708333        0.185185        0.768166        0        
C3        C        0.666667        0.203703        0.768166        0        
C4        C        0.708333        0.148148        0.768166        0        
C1        C        0.666667        0.24074099999999998        0.768166        0        
C2        C        0.708333        0.296297        0.768166        0        
C3        C        0.666667        0.314815        0.768166        0        
C4        C        0.708333        0.259259        0.768166        0        
C1        C        0.666667        0.351852        0.768166        0        
C2        C        0.708333        0.407408        0.768166        0        
C3        C        0.666667        0.42592500000000005        0.768166        0        
C4        C        0.708333        0.37037        0.768166        0        
C1        C        0.666667        0.46296300000000007        0.768166        0        
C2        C        0.708333        0.518519        0.768166        0        
C3        C        0.666667        0.537037        0.768166        0        
C4        C        0.708333        0.481481        0.768166        0        
C1        C        0.666667        0.574075        0.768166        0        
C2        C        0.708333        0.62963        0.768166        0        
C3        C        0.666667        0.648148        0.768166        0        
C4        C        0.708333        0.592592        0.768166        0        
C_FG        C        0.75        0.018519        0.768166        0.2        
C2        C        0.7916670000000001        0.074075        0.768166        0        
C3        C        0.75        0.092592        0.768166        0        
C4        C        0.7916670000000001        0.037037        0.768166        0        
C_FG        C        0.75        0.12963        0.768166        0.2        
C2        C        0.7916670000000001        0.185185        0.768166        0        
C3        C        0.75        0.203703        0.768166        0        
C4        C        0.7916670000000001        0.148148        0.768166        0        
C_FG        C        0.75        0.24074099999999998        0.768166        0.2        
C2        C        0.7916670000000001        0.296297        0.768166        0        
C3        C        0.75        0.314815        0.768166        0        
C4        C        0.7916670000000001        0.259259        0.768166        0        
C_FG        C        0.75        0.351852        0.768166        0.2        
C2        C        0.7916670000000001        0.407408        0.768166        0        
C3        C        0.75        0.42592500000000005        0.768166        0        
C4        C        0.7916670000000001        0.37037        0.768166        0        
C_FG        C        0.75        0.46296300000000007        0.768166        0.2        
C2        C        0.7916670000000001        0.518519        0.768166        0        
C3        C        0.75        0.537037        0.768166        0        
C4        C        0.7916670000000001        0.481481        0.768166        0        
C_FG        C        0.75        0.574075        0.768166        0.2        
C2        C        0.7916670000000001        0.62963        0.768166        0        
C3        C        0.75        0.648148        0.768166        0        
C4        C        0.7916670000000001        0.592592        0.768166        0        
C1        C        0.833333        0.018519        0.768166        0        
C2        C        0.875        0.074075        0.768166        0        
C3        C        0.833333        0.092592        0.768166        0        
C4        C        0.875        0.037037        0.768166        0        
C1        C        0.833333        0.12963        0.768166        0        
C2        C        0.875        0.185185        0.768166        0        
C3        C        0.833333        0.203703        0.768166        0        
C4        C        0.875        0.148148        0.768166        0        
C1        C        0.833333        0.24074099999999998        0.768166        0        
C2        C        0.875        0.296297        0.768166        0        
C3        C        0.833333        0.314815        0.768166        0        
C4        C        0.875        0.259259        0.768166        0        
C1        C        0.833333        0.351852        0.768166        0        
C2        C        0.875        0.407408        0.768166        0        
C3        C        0.833333        0.42592500000000005        0.768166        0        
C4        C        0.875        0.37037        0.768166        0        
C1        C        0.833333        0.46296300000000007        0.768166        0        
C2        C        0.875        0.518519        0.768166        0        
C3        C        0.833333        0.537037        0.768166        0        
C4        C        0.875        0.481481        0.768166        0        
C1        C        0.833333        0.574075        0.768166        0        
C2        C        0.875        0.62963        0.768166        0        
C3        C        0.833333        0.648148        0.768166        0        
C4        C        0.875        0.592592        0.768166        0        
C_FG        C        0.916667        0.018519        0.768166        0.2        
C2        C        0.958333        0.074075        0.768166        0        
C3        C        0.916667        0.092592        0.768166        0        
C4        C        0.958333        0.037037        0.768166        0        
C_FG        C        0.916667        0.12963        0.768166        0.2        
C2        C        0.958333        0.185185        0.768166        0        
C3        C        0.916667        0.203703        0.768166        0        
C4        C        0.958333        0.148148        0.768166        0        
C_FG        C        0.916667        0.24074099999999998        0.768166        0.2        
C2        C        0.958333        0.296297        0.768166        0        
C3        C        0.916667        0.314815        0.768166        0        
C4        C        0.958333        0.259259        0.768166        0        
C_FG        C        0.916667        0.351852        0.768166        0.2        
C2        C        0.958333        0.407408        0.768166        0        
C3        C        0.916667        0.42592500000000005        0.768166        0        
C4        C        0.958333        0.37037        0.768166        0        
C_FG        C        0.916667        0.46296300000000007        0.768166        0.2        
C2        C        0.958333        0.518519        0.768166        0        
C3        C        0.916667        0.537037        0.768166        0        
C4        C        0.958333        0.481481        0.768166        0        
C_FG        C        0.916667        0.574075        0.768166        0.2        
C2        C        0.958333        0.62963        0.768166        0        
C3        C        0.916667        0.648148        0.768166        0        
C4        C        0.958333        0.592592        0.768166        0        
C1        C        0.0        0.685186        0.768166        0        
C_FG        C        0.083333        0.685186        0.768166        0.2        
C1        C        0.166667        0.685186        0.768166        0        
C_FG        C        0.25        0.685186        0.768166        0.2        
C1        C        0.333333        0.685186        0.768166        0        
C1        C        0.416667        0.685186        0.768166        0        
C1        C        0.5        0.685186        0.768166        0        
C1        C        0.583333        0.685186        0.768166        0        
C1        C        0.666667        0.685186        0.768166        0        
C_FG        C        0.75        0.685186        0.768166        0.2        
C1        C        0.833333        0.685186        0.768166        0        
C_FG        C        0.916667        0.685186        0.768166        0.2        
C2        C        0.041667        0.740741        0.768166        0        
C2        C        0.125        0.740741        0.768166        0        
C2        C        0.208333        0.740741        0.768166        0        
C2        C        0.291667        0.740741        0.768166        0        
C2        C        0.375        0.740741        0.768166        0        
C2        C        0.458333        0.740741        0.768166        0        
C2        C        0.541667        0.740741        0.768166        0        
C2        C        0.625        0.740741        0.768166        0        
C2        C        0.708333        0.740741        0.768166        0        
C2        C        0.7916670000000001        0.740741        0.768166        0        
C2        C        0.875        0.740741        0.768166        0        
C2        C        0.958333        0.740741        0.768166        0        
C3        C        0.0        0.759259        0.768166        0        
C3        C        0.083333        0.759259        0.768166        0        
C3        C        0.166667        0.759259        0.768166        0        
C3        C        0.25        0.759259        0.768166        0        
C3        C        0.333333        0.759259        0.768166        0        
C3        C        0.416667        0.759259        0.768166        0        
C3        C        0.5        0.759259        0.768166        0        
C3        C        0.583333        0.759259        0.768166        0        
C3        C        0.666667        0.759259        0.768166        0        
C3        C        0.75        0.759259        0.768166        0        
C3        C        0.833333        0.759259        0.768166        0        
C3        C        0.916667        0.759259        0.768166        0        
C4        C        0.041667        0.703703        0.768166        0        
C4        C        0.125        0.703703        0.768166        0        
C4        C        0.208333        0.703703        0.768166        0        
C4        C        0.291667        0.703703        0.768166        0        
C4        C        0.375        0.703703        0.768166        0        
C4        C        0.458333        0.703703        0.768166        0        
C4        C        0.541667        0.703703        0.768166        0        
C4        C        0.625        0.703703        0.768166        0        
C4        C        0.708333        0.703703        0.768166        0        
C4        C        0.7916670000000001        0.703703        0.768166        0        
C4        C        0.875        0.703703        0.768166        0        
C4        C        0.958333        0.703703        0.768166        0        
C1        C        0.0        0.796297        0.768166        0        
C_FG        C        0.083333        0.796297        0.768166        0.2        
C1        C        0.166667        0.796297        0.768166        0        
C_FG        C        0.25        0.796297        0.768166        0.2        
C1        C        0.333333        0.796297        0.768166        0        
C1        C        0.416667        0.796297        0.768166        0        
C1        C        0.5        0.796297        0.768166        0        
C1        C        0.583333        0.796297        0.768166        0        
C1        C        0.666667        0.796297        0.768166        0        
C_FG        C        0.75        0.796297        0.768166        0.2        
C1        C        0.833333        0.796297        0.768166        0        
C_FG        C        0.916667        0.796297        0.768166        0.2        
C2        C        0.041667        0.851852        0.768166        0        
C2        C        0.125        0.851852        0.768166        0        
C2        C        0.208333        0.851852        0.768166        0        
C2        C        0.291667        0.851852        0.768166        0        
C2        C        0.375        0.851852        0.768166        0        
C2        C        0.458333        0.851852        0.768166        0        
C2        C        0.541667        0.851852        0.768166        0        
C2        C        0.625        0.851852        0.768166        0        
C2        C        0.708333        0.851852        0.768166        0        
C2        C        0.7916670000000001        0.851852        0.768166        0        
C2        C        0.875        0.851852        0.768166        0        
C2        C        0.958333        0.851852        0.768166        0        
C3        C        0.0        0.87037        0.768166        0        
C3        C        0.083333        0.87037        0.768166        0        
C3        C        0.166667        0.87037        0.768166        0        
C3        C        0.25        0.87037        0.768166        0        
C3        C        0.333333        0.87037        0.768166        0        
C3        C        0.416667        0.87037        0.768166        0        
C3        C        0.5        0.87037        0.768166        0        
C3        C        0.583333        0.87037        0.768166        0        
C3        C        0.666667        0.87037        0.768166        0        
C3        C        0.75        0.87037        0.768166        0        
C3        C        0.833333        0.87037        0.768166        0        
C3        C        0.916667        0.87037        0.768166        0        
C4        C        0.041667        0.814814        0.768166        0        
C4        C        0.125        0.814814        0.768166        0        
C4        C        0.208333        0.814814        0.768166        0        
C4        C        0.291667        0.814814        0.768166        0        
C4        C        0.375        0.814814        0.768166        0        
C4        C        0.458333        0.814814        0.768166        0        
C4        C        0.541667        0.814814        0.768166        0        
C4        C        0.625        0.814814        0.768166        0        
C4        C        0.708333        0.814814        0.768166        0        
C4        C        0.7916670000000001        0.814814        0.768166        0        
C4        C        0.875        0.814814        0.768166        0        
C4        C        0.958333        0.814814        0.768166        0        
C1        C        0.0        0.907408        0.768166        0        
C_FG        C        0.083333        0.907408        0.768166        0.2        
C1        C        0.166667        0.907408        0.768166        0        
C_FG        C        0.25        0.907408        0.768166        0.2        
C1        C        0.333333        0.907408        0.768166        0        
C1        C        0.416667        0.907408        0.768166        0        
C1        C        0.5        0.907408        0.768166        0        
C1        C        0.583333        0.907408        0.768166        0        
C1        C        0.666667        0.907408        0.768166        0        
C_FG        C        0.75        0.907408        0.768166        0.2        
C1        C        0.833333        0.907408        0.768166        0        
C_FG        C        0.916667        0.907408        0.768166        0.2        
C2        C        0.041667        0.962963        0.768166        0        
C2        C        0.125        0.962963        0.768166        0        
C2        C        0.208333        0.962963        0.768166        0        
C2        C        0.291667        0.962963        0.768166        0        
C2        C        0.375        0.962963        0.768166        0        
C2        C        0.458333        0.962963        0.768166        0        
C2        C        0.541667        0.962963        0.768166        0        
C2        C        0.625        0.962963        0.768166        0        
C2        C        0.708333        0.962963        0.768166        0        
C2        C        0.7916670000000001        0.962963        0.768166        0        
C2        C        0.875        0.962963        0.768166        0        
C2        C        0.958333        0.962963        0.768166        0        
C3        C        0.0        0.9814809999999999        0.768166        0        
C3        C        0.083333        0.9814809999999999        0.768166        0        
C3        C        0.166667        0.9814809999999999        0.768166        0        
C3        C        0.25        0.9814809999999999        0.768166        0        
C3        C        0.333333        0.9814809999999999        0.768166        0        
C3        C        0.416667        0.9814809999999999        0.768166        0        
C3        C        0.5        0.9814809999999999        0.768166        0        
C3        C        0.583333        0.9814809999999999        0.768166        0        
C3        C        0.666667        0.9814809999999999        0.768166        0        
C3        C        0.75        0.9814809999999999        0.768166        0        
C3        C        0.833333        0.9814809999999999        0.768166        0        
C3        C        0.916667        0.9814809999999999        0.768166        0        
C4        C        0.041667        0.925925        0.768166        0        
C4        C        0.125        0.925925        0.768166        0        
C4        C        0.208333        0.925925        0.768166        0        
C4        C        0.291667        0.925925        0.768166        0        
C4        C        0.375        0.925925        0.768166        0        
C4        C        0.458333        0.925925        0.768166        0        
C4        C        0.541667        0.925925        0.768166        0        
C4        C        0.625        0.925925        0.768166        0        
C4        C        0.708333        0.925925        0.768166        0        
C4        C        0.7916670000000001        0.925925        0.768166        0        
C4        C        0.875        0.925925        0.768166        0        
C4        C        0.958333        0.925925        0.768166        0        
C1        C        0.0        0.018519        0.884083        0        
C2        C        0.041667        0.074075        0.884083        0        
C3        C        0.0        0.092592        0.884083        0        
C4        C        0.041667        0.037037        0.884083        0        
C1        C        0.0        0.12963        0.884083        0        
C2        C        0.041667        0.185185        0.884083        0        
C3        C        0.0        0.203703        0.884083        0        
C4        C        0.041667        0.148148        0.884083        0        
C1        C        0.0        0.24074099999999998        0.884083        0        
C2        C        0.041667        0.296297        0.884083        0        
C3        C        0.0        0.314815        0.884083        0        
C4        C        0.041667        0.259259        0.884083        0        
C1        C        0.0        0.351852        0.884083        0        
C2        C        0.041667        0.407408        0.884083        0        
C3        C        0.0        0.42592500000000005        0.884083        0        
C4        C        0.041667        0.37037        0.884083        0        
C1        C        0.0        0.46296300000000007        0.884083        0        
C2        C        0.041667        0.518519        0.884083        0        
C3        C        0.0        0.537037        0.884083        0        
C4        C        0.041667        0.481481        0.884083        0        
C1        C        0.0        0.574075        0.884083        0        
C2        C        0.041667        0.62963        0.884083        0        
C3        C        0.0        0.648148        0.884083        0        
C4        C        0.041667        0.592592        0.884083        0        
C1        C        0.083333        0.018519        0.884083        0        
C2        C        0.125        0.074075        0.884083        0        
C3        C        0.083333        0.092592        0.884083        0        
C4        C        0.125        0.037037        0.884083        0        
C1        C        0.083333        0.12963        0.884083        0        
C2        C        0.125        0.185185        0.884083        0        
C3        C        0.083333        0.203703        0.884083        0        
C4        C        0.125        0.148148        0.884083        0        
C1        C        0.083333        0.24074099999999998        0.884083        0        
C2        C        0.125        0.296297        0.884083        0        
C3        C        0.083333        0.314815        0.884083        0        
C4        C        0.125        0.259259        0.884083        0        
C1        C        0.083333        0.351852        0.884083        0        
C2        C        0.125        0.407408        0.884083        0        
C3        C        0.083333        0.42592500000000005        0.884083        0        
C4        C        0.125        0.37037        0.884083        0        
C1        C        0.083333        0.46296300000000007        0.884083        0        
C2        C        0.125        0.518519        0.884083        0        
C3        C        0.083333        0.537037        0.884083        0        
C4        C        0.125        0.481481        0.884083        0        
C1        C        0.083333        0.574075        0.884083        0        
C2        C        0.125        0.62963        0.884083        0        
C3        C        0.083333        0.648148        0.884083        0        
C4        C        0.125        0.592592        0.884083        0        
C1        C        0.166667        0.018519        0.884083        0        
C2        C        0.208333        0.074075        0.884083        0        
C3        C        0.166667        0.092592        0.884083        0        
C4        C        0.208333        0.037037        0.884083        0        
C1        C        0.166667        0.12963        0.884083        0        
C2        C        0.208333        0.185185        0.884083        0        
C3        C        0.166667        0.203703        0.884083        0        
C4        C        0.208333        0.148148        0.884083        0        
C1        C        0.166667        0.24074099999999998        0.884083        0        
C2        C        0.208333        0.296297        0.884083        0        
C3        C        0.166667        0.314815        0.884083        0        
C4        C        0.208333        0.259259        0.884083        0        
C1        C        0.166667        0.351852        0.884083        0        
C2        C        0.208333        0.407408        0.884083        0        
C3        C        0.166667        0.42592500000000005        0.884083        0        
C4        C        0.208333        0.37037        0.884083        0        
C1        C        0.166667        0.46296300000000007        0.884083        0        
C2        C        0.208333        0.518519        0.884083        0        
C3        C        0.166667        0.537037        0.884083        0        
C4        C        0.208333        0.481481        0.884083        0        
C1        C        0.166667        0.574075        0.884083        0        
C2        C        0.208333        0.62963        0.884083        0        
C3        C        0.166667        0.648148        0.884083        0        
C4        C        0.208333        0.592592        0.884083        0        
C1        C        0.25        0.018519        0.884083        0        
C2        C        0.291667        0.074075        0.884083        0        
C3        C        0.25        0.092592        0.884083        0        
C4        C        0.291667        0.037037        0.884083        0        
C1        C        0.25        0.12963        0.884083        0        
C2        C        0.291667        0.185185        0.884083        0        
C3        C        0.25        0.203703        0.884083        0        
C4        C        0.291667        0.148148        0.884083        0        
C1        C        0.25        0.24074099999999998        0.884083        0        
C2        C        0.291667        0.296297        0.884083        0        
C3        C        0.25        0.314815        0.884083        0        
C4        C        0.291667        0.259259        0.884083        0        
C1        C        0.25        0.351852        0.884083        0        
C2        C        0.291667        0.407408        0.884083        0        
C3        C        0.25        0.42592500000000005        0.884083        0        
C4        C        0.291667        0.37037        0.884083        0        
C1        C        0.25        0.46296300000000007        0.884083        0        
C2        C        0.291667        0.518519        0.884083        0        
C3        C        0.25        0.537037        0.884083        0        
C4        C        0.291667        0.481481        0.884083        0        
C1        C        0.25        0.574075        0.884083        0        
C2        C        0.291667        0.62963        0.884083        0        
C3        C        0.25        0.648148        0.884083        0        
C4        C        0.291667        0.592592        0.884083        0        
C1        C        0.333333        0.018519        0.884083        0        
C2        C        0.375        0.074075        0.884083        0        
C3        C        0.333333        0.092592        0.884083        0        
C4        C        0.375        0.037037        0.884083        0        
C1        C        0.333333        0.12963        0.884083        0        
C2        C        0.375        0.185185        0.884083        0        
C3        C        0.333333        0.203703        0.884083        0        
C4        C        0.375        0.148148        0.884083        0        
C1        C        0.333333        0.24074099999999998        0.884083        0        
C2        C        0.375        0.296297        0.884083        0        
C3        C        0.333333        0.314815        0.884083        0        
C4        C        0.375        0.259259        0.884083        0        
C1        C        0.333333        0.351852        0.884083        0        
C2        C        0.375        0.407408        0.884083        0        
C3        C        0.333333        0.42592500000000005        0.884083        0        
C4        C        0.375        0.37037        0.884083        0        
C1        C        0.333333        0.46296300000000007        0.884083        0        
C2        C        0.375        0.518519        0.884083        0        
C3        C        0.333333        0.537037        0.884083        0        
C4        C        0.375        0.481481        0.884083        0        
C1        C        0.333333        0.574075        0.884083        0        
C2        C        0.375        0.62963        0.884083        0        
C3        C        0.333333        0.648148        0.884083        0        
C4        C        0.375        0.592592        0.884083        0        
C1        C        0.416667        0.018519        0.884083        0        
C2        C        0.458333        0.074075        0.884083        0        
C3        C        0.416667        0.092592        0.884083        0        
C4        C        0.458333        0.037037        0.884083        0        
C1        C        0.416667        0.12963        0.884083        0        
C2        C        0.458333        0.185185        0.884083        0        
C3        C        0.416667        0.203703        0.884083        0        
C4        C        0.458333        0.148148        0.884083        0        
C1        C        0.416667        0.24074099999999998        0.884083        0        
C2        C        0.458333        0.296297        0.884083        0        
C3        C        0.416667        0.314815        0.884083        0        
C4        C        0.458333        0.259259        0.884083        0        
C1        C        0.416667        0.351852        0.884083        0        
C2        C        0.458333        0.407408        0.884083        0        
C3        C        0.416667        0.42592500000000005        0.884083        0        
C4        C        0.458333        0.37037        0.884083        0        
C1        C        0.416667        0.46296300000000007        0.884083        0        
C2        C        0.458333        0.518519        0.884083        0        
C3        C        0.416667        0.537037        0.884083        0        
C4        C        0.458333        0.481481        0.884083        0        
C1        C        0.416667        0.574075        0.884083        0        
C2        C        0.458333        0.62963        0.884083        0        
C3        C        0.416667        0.648148        0.884083        0        
C4        C        0.458333        0.592592        0.884083        0        
C1        C        0.5        0.018519        0.884083        0        
C2        C        0.541667        0.074075        0.884083        0        
C3        C        0.5        0.092592        0.884083        0        
C4        C        0.541667        0.037037        0.884083        0        
C1        C        0.5        0.12963        0.884083        0        
C2        C        0.541667        0.185185        0.884083        0        
C3        C        0.5        0.203703        0.884083        0        
C4        C        0.541667        0.148148        0.884083        0        
C1        C        0.5        0.24074099999999998        0.884083        0        
C2        C        0.541667        0.296297        0.884083        0        
C3        C        0.5        0.314815        0.884083        0        
C4        C        0.541667        0.259259        0.884083        0        
C1        C        0.5        0.351852        0.884083        0        
C2        C        0.541667        0.407408        0.884083        0        
C3        C        0.5        0.42592500000000005        0.884083        0        
C4        C        0.541667        0.37037        0.884083        0        
C1        C        0.5        0.46296300000000007        0.884083        0        
C2        C        0.541667        0.518519        0.884083        0        
C3        C        0.5        0.537037        0.884083        0        
C4        C        0.541667        0.481481        0.884083        0        
C1        C        0.5        0.574075        0.884083        0        
C2        C        0.541667        0.62963        0.884083        0        
C3        C        0.5        0.648148        0.884083        0        
C4        C        0.541667        0.592592        0.884083        0        
C1        C        0.583333        0.018519        0.884083        0        
C2        C        0.625        0.074075        0.884083        0        
C3        C        0.583333        0.092592        0.884083        0        
C4        C        0.625        0.037037        0.884083        0        
C1        C        0.583333        0.12963        0.884083        0        
C2        C        0.625        0.185185        0.884083        0        
C3        C        0.583333        0.203703        0.884083        0        
C4        C        0.625        0.148148        0.884083        0        
C1        C        0.583333        0.24074099999999998        0.884083        0        
C2        C        0.625        0.296297        0.884083        0        
C3        C        0.583333        0.314815        0.884083        0        
C4        C        0.625        0.259259        0.884083        0        
C1        C        0.583333        0.351852        0.884083        0        
C2        C        0.625        0.407408        0.884083        0        
C3        C        0.583333        0.42592500000000005        0.884083        0        
C4        C        0.625        0.37037        0.884083        0        
C1        C        0.583333        0.46296300000000007        0.884083        0        
C2        C        0.625        0.518519        0.884083        0        
C3        C        0.583333        0.537037        0.884083        0        
C4        C        0.625        0.481481        0.884083        0        
C1        C        0.583333        0.574075        0.884083        0        
C2        C        0.625        0.62963        0.884083        0        
C3        C        0.583333        0.648148        0.884083        0        
C4        C        0.625        0.592592        0.884083        0        
C1        C        0.666667        0.018519        0.884083        0        
C2        C        0.708333        0.074075        0.884083        0        
C3        C        0.666667        0.092592        0.884083        0        
C4        C        0.708333        0.037037        0.884083        0        
C1        C        0.666667        0.12963        0.884083        0        
C2        C        0.708333        0.185185        0.884083        0        
C3        C        0.666667        0.203703        0.884083        0        
C4        C        0.708333        0.148148        0.884083        0        
C1        C        0.666667        0.24074099999999998        0.884083        0        
C2        C        0.708333        0.296297        0.884083        0        
C3        C        0.666667        0.314815        0.884083        0        
C4        C        0.708333        0.259259        0.884083        0        
C1        C        0.666667        0.351852        0.884083        0        
C2        C        0.708333        0.407408        0.884083        0        
C3        C        0.666667        0.42592500000000005        0.884083        0        
C4        C        0.708333        0.37037        0.884083        0        
C1        C        0.666667        0.46296300000000007        0.884083        0        
C2        C        0.708333        0.518519        0.884083        0        
C3        C        0.666667        0.537037        0.884083        0        
C4        C        0.708333        0.481481        0.884083        0        
C1        C        0.666667        0.574075        0.884083        0        
C2        C        0.708333        0.62963        0.884083        0        
C3        C        0.666667        0.648148        0.884083        0        
C4        C        0.708333        0.592592        0.884083        0        
C1        C        0.75        0.018519        0.884083        0        
C2        C        0.7916670000000001        0.074075        0.884083        0        
C3        C        0.75        0.092592        0.884083        0        
C4        C        0.7916670000000001        0.037037        0.884083        0        
C1        C        0.75        0.12963        0.884083        0        
C2        C        0.7916670000000001        0.185185        0.884083        0        
C3        C        0.75        0.203703        0.884083        0        
C4        C        0.7916670000000001        0.148148        0.884083        0        
C1        C        0.75        0.24074099999999998        0.884083        0        
C2        C        0.7916670000000001        0.296297        0.884083        0        
C3        C        0.75        0.314815        0.884083        0        
C4        C        0.7916670000000001        0.259259        0.884083        0        
C1        C        0.75        0.351852        0.884083        0        
C2        C        0.7916670000000001        0.407408        0.884083        0        
C3        C        0.75        0.42592500000000005        0.884083        0        
C4        C        0.7916670000000001        0.37037        0.884083        0        
C1        C        0.75        0.46296300000000007        0.884083        0        
C2        C        0.7916670000000001        0.518519        0.884083        0        
C3        C        0.75        0.537037        0.884083        0        
C4        C        0.7916670000000001        0.481481        0.884083        0        
C1        C        0.75        0.574075        0.884083        0        
C2        C        0.7916670000000001        0.62963        0.884083        0        
C3        C        0.75        0.648148        0.884083        0        
C4        C        0.7916670000000001        0.592592        0.884083        0        
C1        C        0.833333        0.018519        0.884083        0        
C2        C        0.875        0.074075        0.884083        0        
C3        C        0.833333        0.092592        0.884083        0        
C4        C        0.875        0.037037        0.884083        0        
C1        C        0.833333        0.12963        0.884083        0        
C2        C        0.875        0.185185        0.884083        0        
C3        C        0.833333        0.203703        0.884083        0        
C4        C        0.875        0.148148        0.884083        0        
C1        C        0.833333        0.24074099999999998        0.884083        0        
C2        C        0.875        0.296297        0.884083        0        
C3        C        0.833333        0.314815        0.884083        0        
C4        C        0.875        0.259259        0.884083        0        
C1        C        0.833333        0.351852        0.884083        0        
C2        C        0.875        0.407408        0.884083        0        
C3        C        0.833333        0.42592500000000005        0.884083        0        
C4        C        0.875        0.37037        0.884083        0        
C1        C        0.833333        0.46296300000000007        0.884083        0        
C2        C        0.875        0.518519        0.884083        0        
C3        C        0.833333        0.537037        0.884083        0        
C4        C        0.875        0.481481        0.884083        0        
C1        C        0.833333        0.574075        0.884083        0        
C2        C        0.875        0.62963        0.884083        0        
C3        C        0.833333        0.648148        0.884083        0        
C4        C        0.875        0.592592        0.884083        0        
C1        C        0.916667        0.018519        0.884083        0        
C2        C        0.958333        0.074075        0.884083        0        
C3        C        0.916667        0.092592        0.884083        0        
C4        C        0.958333        0.037037        0.884083        0        
C1        C        0.916667        0.12963        0.884083        0        
C2        C        0.958333        0.185185        0.884083        0        
C3        C        0.916667        0.203703        0.884083        0        
C4        C        0.958333        0.148148        0.884083        0        
C1        C        0.916667        0.24074099999999998        0.884083        0        
C2        C        0.958333        0.296297        0.884083        0        
C3        C        0.916667        0.314815        0.884083        0        
C4        C        0.958333        0.259259        0.884083        0        
C1        C        0.916667        0.351852        0.884083        0        
C2        C        0.958333        0.407408        0.884083        0        
C3        C        0.916667        0.42592500000000005        0.884083        0        
C4        C        0.958333        0.37037        0.884083        0        
C1        C        0.916667        0.46296300000000007        0.884083        0        
C2        C        0.958333        0.518519        0.884083        0        
C3        C        0.916667        0.537037        0.884083        0        
C4        C        0.958333        0.481481        0.884083        0        
C1        C        0.916667        0.574075        0.884083        0        
C2        C        0.958333        0.62963        0.884083        0        
C3        C        0.916667        0.648148        0.884083        0        
C4        C        0.958333        0.592592        0.884083        0        
C1        C        0.0        0.685186        0.884083        0        
C1        C        0.083333        0.685186        0.884083        0        
C1        C        0.166667        0.685186        0.884083        0        
C1        C        0.25        0.685186        0.884083        0        
C1        C        0.333333        0.685186        0.884083        0        
C1        C        0.416667        0.685186        0.884083        0        
C1        C        0.5        0.685186        0.884083        0        
C1        C        0.583333        0.685186        0.884083        0        
C1        C        0.666667        0.685186        0.884083        0        
C1        C        0.75        0.685186        0.884083        0        
C1        C        0.833333        0.685186        0.884083        0        
C1        C        0.916667        0.685186        0.884083        0        
C2        C        0.041667        0.740741        0.884083        0        
C2        C        0.125        0.740741        0.884083        0        
C2        C        0.208333        0.740741        0.884083        0        
C2        C        0.291667        0.740741        0.884083        0        
C2        C        0.375        0.740741        0.884083        0        
C2        C        0.458333        0.740741        0.884083        0        
C2        C        0.541667        0.740741        0.884083        0        
C2        C        0.625        0.740741        0.884083        0        
C2        C        0.708333        0.740741        0.884083        0        
C2        C        0.7916670000000001        0.740741        0.884083        0        
C2        C        0.875        0.740741        0.884083        0        
C2        C        0.958333        0.740741        0.884083        0        
C3        C        0.0        0.759259        0.884083        0        
C3        C        0.083333        0.759259        0.884083        0        
C3        C        0.166667        0.759259        0.884083        0        
C3        C        0.25        0.759259        0.884083        0        
C3        C        0.333333        0.759259        0.884083        0        
C3        C        0.416667        0.759259        0.884083        0        
C3        C        0.5        0.759259        0.884083        0        
C3        C        0.583333        0.759259        0.884083        0        
C3        C        0.666667        0.759259        0.884083        0        
C3        C        0.75        0.759259        0.884083        0        
C3        C        0.833333        0.759259        0.884083        0        
C3        C        0.916667        0.759259        0.884083        0        
C4        C        0.041667        0.703703        0.884083        0        
C4        C        0.125        0.703703        0.884083        0        
C4        C        0.208333        0.703703        0.884083        0        
C4        C        0.291667        0.703703        0.884083        0        
C4        C        0.375        0.703703        0.884083        0        
C4        C        0.458333        0.703703        0.884083        0        
C4        C        0.541667        0.703703        0.884083        0        
C4        C        0.625        0.703703        0.884083        0        
C4        C        0.708333        0.703703        0.884083        0        
C4        C        0.7916670000000001        0.703703        0.884083        0        
C4        C        0.875        0.703703        0.884083        0        
C4        C        0.958333        0.703703        0.884083        0        
C1        C        0.0        0.796297        0.884083        0        
C1        C        0.083333        0.796297        0.884083        0        
C1        C        0.166667        0.796297        0.884083        0        
C1        C        0.25        0.796297        0.884083        0        
C1        C        0.333333        0.796297        0.884083        0        
C1        C        0.416667        0.796297        0.884083        0        
C1        C        0.5        0.796297        0.884083        0        
C1        C        0.583333        0.796297        0.884083        0        
C1        C        0.666667        0.796297        0.884083        0        
C1        C        0.75        0.796297        0.884083        0        
C1        C        0.833333        0.796297        0.884083        0        
C1        C        0.916667        0.796297        0.884083        0        
C2        C        0.041667        0.851852        0.884083        0        
C2        C        0.125        0.851852        0.884083        0        
C2        C        0.208333        0.851852        0.884083        0        
C2        C        0.291667        0.851852        0.884083        0        
C2        C        0.375        0.851852        0.884083        0        
C2        C        0.458333        0.851852        0.884083        0        
C2        C        0.541667        0.851852        0.884083        0        
C2        C        0.625        0.851852        0.884083        0        
C2        C        0.708333        0.851852        0.884083        0        
C2        C        0.7916670000000001        0.851852        0.884083        0        
C2        C        0.875        0.851852        0.884083        0        
C2        C        0.958333        0.851852        0.884083        0        
C3        C        0.0        0.87037        0.884083        0        
C3        C        0.083333        0.87037        0.884083        0        
C3        C        0.166667        0.87037        0.884083        0        
C3        C        0.25        0.87037        0.884083        0        
C3        C        0.333333        0.87037        0.884083        0        
C3        C        0.416667        0.87037        0.884083        0        
C3        C        0.5        0.87037        0.884083        0        
C3        C        0.583333        0.87037        0.884083        0        
C3        C        0.666667        0.87037        0.884083        0        
C3        C        0.75        0.87037        0.884083        0        
C3        C        0.833333        0.87037        0.884083        0        
C3        C        0.916667        0.87037        0.884083        0        
C4        C        0.041667        0.814814        0.884083        0        
C4        C        0.125        0.814814        0.884083        0        
C4        C        0.208333        0.814814        0.884083        0        
C4        C        0.291667        0.814814        0.884083        0        
C4        C        0.375        0.814814        0.884083        0        
C4        C        0.458333        0.814814        0.884083        0        
C4        C        0.541667        0.814814        0.884083        0        
C4        C        0.625        0.814814        0.884083        0        
C4        C        0.708333        0.814814        0.884083        0        
C4        C        0.7916670000000001        0.814814        0.884083        0        
C4        C        0.875        0.814814        0.884083        0        
C4        C        0.958333        0.814814        0.884083        0        
C1        C        0.0        0.907408        0.884083        0        
C1        C        0.083333        0.907408        0.884083        0        
C1        C        0.166667        0.907408        0.884083        0        
C1        C        0.25        0.907408        0.884083        0        
C1        C        0.333333        0.907408        0.884083        0        
C1        C        0.416667        0.907408        0.884083        0        
C1        C        0.5        0.907408        0.884083        0        
C1        C        0.583333        0.907408        0.884083        0        
C1        C        0.666667        0.907408        0.884083        0        
C1        C        0.75        0.907408        0.884083        0        
C1        C        0.833333        0.907408        0.884083        0        
C1        C        0.916667        0.907408        0.884083        0        
C2        C        0.041667        0.962963        0.884083        0        
C2        C        0.125        0.962963        0.884083        0        
C2        C        0.208333        0.962963        0.884083        0        
C2        C        0.291667        0.962963        0.884083        0        
C2        C        0.375        0.962963        0.884083        0        
C2        C        0.458333        0.962963        0.884083        0        
C2        C        0.541667        0.962963        0.884083        0        
C2        C        0.625        0.962963        0.884083        0        
C2        C        0.708333        0.962963        0.884083        0        
C2        C        0.7916670000000001        0.962963        0.884083        0        
C2        C        0.875        0.962963        0.884083        0        
C2        C        0.958333        0.962963        0.884083        0        
C3        C        0.0        0.9814809999999999        0.884083        0        
C3        C        0.083333        0.9814809999999999        0.884083        0        
C3        C        0.166667        0.9814809999999999        0.884083        0        
C3        C        0.25        0.9814809999999999        0.884083        0        
C3        C        0.333333        0.9814809999999999        0.884083        0        
C3        C        0.416667        0.9814809999999999        0.884083        0        
C3        C        0.5        0.9814809999999999        0.884083        0        
C3        C        0.583333        0.9814809999999999        0.884083        0        
C3        C        0.666667        0.9814809999999999        0.884083        0        
C3        C        0.75        0.9814809999999999        0.884083        0        
C3        C        0.833333        0.9814809999999999        0.884083        0        
C3        C        0.916667        0.9814809999999999        0.884083        0        
C4        C        0.041667        0.925925        0.884083        0        
C4        C        0.125        0.925925        0.884083        0        
C4        C        0.208333        0.925925        0.884083        0        
C4        C        0.291667        0.925925        0.884083        0        
C4        C        0.375        0.925925        0.884083        0        
C4        C        0.458333        0.925925        0.884083        0        
C4        C        0.541667        0.925925        0.884083        0        
C4        C        0.625        0.925925        0.884083        0        
C4        C        0.708333        0.925925        0.884083        0        
C4        C        0.7916670000000001        0.925925        0.884083        0        
C4        C        0.875        0.925925        0.884083        0        
C4        C        0.958333        0.925925        0.884083        0        
C1        C        0.0        0.018519        1.0        0        
C2        C        0.041667        0.074075        1.0        0        
C3        C        0.0        0.092592        1.0        0        
C4        C        0.041667        0.037037        1.0        0        
C1        C        0.0        0.12963        1.0        0        
C2        C        0.041667        0.185185        1.0        0        
C3        C        0.0        0.203703        1.0        0        
C4        C        0.041667        0.148148        1.0        0        
C1        C        0.0        0.24074099999999998        1.0        0        
C2        C        0.041667        0.296297        1.0        0        
C3        C        0.0        0.314815        1.0        0        
C4        C        0.041667        0.259259        1.0        0        
C1        C        0.0        0.351852        1.0        0        
C2        C        0.041667        0.407408        1.0        0        
C3        C        0.0        0.42592500000000005        1.0        0        
C4        C        0.041667        0.37037        1.0        0        
C1        C        0.0        0.46296300000000007        1.0        0        
C2        C        0.041667        0.518519        1.0        0        
C3        C        0.0        0.537037        1.0        0        
C4        C        0.041667        0.481481        1.0        0        
C1        C        0.0        0.574075        1.0        0        
C2        C        0.041667        0.62963        1.0        0        
C3        C        0.0        0.648148        1.0        0        
C4        C        0.041667        0.592592        1.0        0        
C1        C        0.083333        0.018519        1.0        0        
C2        C        0.125        0.074075        1.0        0        
C3        C        0.083333        0.092592        1.0        0        
C4        C        0.125        0.037037        1.0        0        
C1        C        0.083333        0.12963        1.0        0        
C2        C        0.125        0.185185        1.0        0        
C3        C        0.083333        0.203703        1.0        0        
C4        C        0.125        0.148148        1.0        0        
C1        C        0.083333        0.24074099999999998        1.0        0        
C2        C        0.125        0.296297        1.0        0        
C3        C        0.083333        0.314815        1.0        0        
C4        C        0.125        0.259259        1.0        0        
C1        C        0.083333        0.351852        1.0        0        
C2        C        0.125        0.407408        1.0        0        
C3        C        0.083333        0.42592500000000005        1.0        0        
C4        C        0.125        0.37037        1.0        0        
C1        C        0.083333        0.46296300000000007        1.0        0        
C2        C        0.125        0.518519        1.0        0        
C3        C        0.083333        0.537037        1.0        0        
C4        C        0.125        0.481481        1.0        0        
C1        C        0.083333        0.574075        1.0        0        
C2        C        0.125        0.62963        1.0        0        
C3        C        0.083333        0.648148        1.0        0        
C4        C        0.125        0.592592        1.0        0        
C1        C        0.166667        0.018519        1.0        0        
C2        C        0.208333        0.074075        1.0        0        
C3        C        0.166667        0.092592        1.0        0        
C4        C        0.208333        0.037037        1.0        0        
C1        C        0.166667        0.12963        1.0        0        
C2        C        0.208333        0.185185        1.0        0        
C3        C        0.166667        0.203703        1.0        0        
C4        C        0.208333        0.148148        1.0        0        
C1        C        0.166667        0.24074099999999998        1.0        0        
C2        C        0.208333        0.296297        1.0        0        
C3        C        0.166667        0.314815        1.0        0        
C4        C        0.208333        0.259259        1.0        0        
C1        C        0.166667        0.351852        1.0        0        
C2        C        0.208333        0.407408        1.0        0        
C3        C        0.166667        0.42592500000000005        1.0        0        
C4        C        0.208333        0.37037        1.0        0        
C1        C        0.166667        0.46296300000000007        1.0        0        
C2        C        0.208333        0.518519        1.0        0        
C3        C        0.166667        0.537037        1.0        0        
C4        C        0.208333        0.481481        1.0        0        
C1        C        0.166667        0.574075        1.0        0        
C2        C        0.208333        0.62963        1.0        0        
C3        C        0.166667        0.648148        1.0        0        
C4        C        0.208333        0.592592        1.0        0        
C1        C        0.25        0.018519        1.0        0        
C2        C        0.291667        0.074075        1.0        0        
C3        C        0.25        0.092592        1.0        0        
C4        C        0.291667        0.037037        1.0        0        
C1        C        0.25        0.12963        1.0        0        
C2        C        0.291667        0.185185        1.0        0        
C3        C        0.25        0.203703        1.0        0        
C4        C        0.291667        0.148148        1.0        0        
C1        C        0.25        0.24074099999999998        1.0        0        
C2        C        0.291667        0.296297        1.0        0        
C3        C        0.25        0.314815        1.0        0        
C4        C        0.291667        0.259259        1.0        0        
C1        C        0.25        0.351852        1.0        0        
C2        C        0.291667        0.407408        1.0        0        
C3        C        0.25        0.42592500000000005        1.0        0        
C4        C        0.291667        0.37037        1.0        0        
C1        C        0.25        0.46296300000000007        1.0        0        
C2        C        0.291667        0.518519        1.0        0        
C3        C        0.25        0.537037        1.0        0        
C4        C        0.291667        0.481481        1.0        0        
C1        C        0.25        0.574075        1.0        0        
C2        C        0.291667        0.62963        1.0        0        
C3        C        0.25        0.648148        1.0        0        
C4        C        0.291667        0.592592        1.0        0        
C1        C        0.333333        0.018519        1.0        0        
C2        C        0.375        0.074075        1.0        0        
C3        C        0.333333        0.092592        1.0        0        
C4        C        0.375        0.037037        1.0        0        
C1        C        0.333333        0.12963        1.0        0        
C2        C        0.375        0.185185        1.0        0        
C3        C        0.333333        0.203703        1.0        0        
C4        C        0.375        0.148148        1.0        0        
C1        C        0.333333        0.24074099999999998        1.0        0        
C2        C        0.375        0.296297        1.0        0        
C3        C        0.333333        0.314815        1.0        0        
C4        C        0.375        0.259259        1.0        0        
C1        C        0.333333        0.351852        1.0        0        
C2        C        0.375        0.407408        1.0        0        
C3        C        0.333333        0.42592500000000005        1.0        0        
C4        C        0.375        0.37037        1.0        0        
C1        C        0.333333        0.46296300000000007        1.0        0        
C2        C        0.375        0.518519        1.0        0        
C3        C        0.333333        0.537037        1.0        0        
C4        C        0.375        0.481481        1.0        0        
C1        C        0.333333        0.574075        1.0        0        
C2        C        0.375        0.62963        1.0        0        
C3        C        0.333333        0.648148        1.0        0        
C4        C        0.375        0.592592        1.0        0        
C1        C        0.416667        0.018519        1.0        0        
C2        C        0.458333        0.074075        1.0        0        
C3        C        0.416667        0.092592        1.0        0        
C4        C        0.458333        0.037037        1.0        0        
C1        C        0.416667        0.12963        1.0        0        
C2        C        0.458333        0.185185        1.0        0        
C3        C        0.416667        0.203703        1.0        0        
C4        C        0.458333        0.148148        1.0        0        
C1        C        0.416667        0.24074099999999998        1.0        0        
C2        C        0.458333        0.296297        1.0        0        
C3        C        0.416667        0.314815        1.0        0        
C4        C        0.458333        0.259259        1.0        0        
C1        C        0.416667        0.351852        1.0        0        
C2        C        0.458333        0.407408        1.0        0        
C3        C        0.416667        0.42592500000000005        1.0        0        
C4        C        0.458333        0.37037        1.0        0        
C1        C        0.416667        0.46296300000000007        1.0        0        
C2        C        0.458333        0.518519        1.0        0        
C3        C        0.416667        0.537037        1.0        0        
C4        C        0.458333        0.481481        1.0        0        
C1        C        0.416667        0.574075        1.0        0        
C2        C        0.458333        0.62963        1.0        0        
C3        C        0.416667        0.648148        1.0        0        
C4        C        0.458333        0.592592        1.0        0        
C1        C        0.5        0.018519        1.0        0        
C2        C        0.541667        0.074075        1.0        0        
C3        C        0.5        0.092592        1.0        0        
C4        C        0.541667        0.037037        1.0        0        
C1        C        0.5        0.12963        1.0        0        
C2        C        0.541667        0.185185        1.0        0        
C3        C        0.5        0.203703        1.0        0        
C4        C        0.541667        0.148148        1.0        0        
C1        C        0.5        0.24074099999999998        1.0        0        
C2        C        0.541667        0.296297        1.0        0        
C3        C        0.5        0.314815        1.0        0        
C4        C        0.541667        0.259259        1.0        0        
C1        C        0.5        0.351852        1.0        0        
C2        C        0.541667        0.407408        1.0        0        
C3        C        0.5        0.42592500000000005        1.0        0        
C4        C        0.541667        0.37037        1.0        0        
C1        C        0.5        0.46296300000000007        1.0        0        
C2        C        0.541667        0.518519        1.0        0        
C3        C        0.5        0.537037        1.0        0        
C4        C        0.541667        0.481481        1.0        0        
C1        C        0.5        0.574075        1.0        0        
C2        C        0.541667        0.62963        1.0        0        
C3        C        0.5        0.648148        1.0        0        
C4        C        0.541667        0.592592        1.0        0        
C1        C        0.583333        0.018519        1.0        0        
C2        C        0.625        0.074075        1.0        0        
C3        C        0.583333        0.092592        1.0        0        
C4        C        0.625        0.037037        1.0        0        
C1        C        0.583333        0.12963        1.0        0        
C2        C        0.625        0.185185        1.0        0        
C3        C        0.583333        0.203703        1.0        0        
C4        C        0.625        0.148148        1.0        0        
C1        C        0.583333        0.24074099999999998        1.0        0        
C2        C        0.625        0.296297        1.0        0        
C3        C        0.583333        0.314815        1.0        0        
C4        C        0.625        0.259259        1.0        0        
C1        C        0.583333        0.351852        1.0        0        
C2        C        0.625        0.407408        1.0        0        
C3        C        0.583333        0.42592500000000005        1.0        0        
C4        C        0.625        0.37037        1.0        0        
C1        C        0.583333        0.46296300000000007        1.0        0        
C2        C        0.625        0.518519        1.0        0        
C3        C        0.583333        0.537037        1.0        0        
C4        C        0.625        0.481481        1.0        0        
C1        C        0.583333        0.574075        1.0        0        
C2        C        0.625        0.62963        1.0        0        
C3        C        0.583333        0.648148        1.0        0        
C4        C        0.625        0.592592        1.0        0        
C1        C        0.666667        0.018519        1.0        0        
C2        C        0.708333        0.074075        1.0        0        
C3        C        0.666667        0.092592        1.0        0        
C4        C        0.708333        0.037037        1.0        0        
C1        C        0.666667        0.12963        1.0        0        
C2        C        0.708333        0.185185        1.0        0        
C3        C        0.666667        0.203703        1.0        0        
C4        C        0.708333        0.148148        1.0        0        
C1        C        0.666667        0.24074099999999998        1.0        0        
C2        C        0.708333        0.296297        1.0        0        
C3        C        0.666667        0.314815        1.0        0        
C4        C        0.708333        0.259259        1.0        0        
C1        C        0.666667        0.351852        1.0        0        
C2        C        0.708333        0.407408        1.0        0        
C3        C        0.666667        0.42592500000000005        1.0        0        
C4        C        0.708333        0.37037        1.0        0        
C1        C        0.666667        0.46296300000000007        1.0        0        
C2        C        0.708333        0.518519        1.0        0        
C3        C        0.666667        0.537037        1.0        0        
C4        C        0.708333        0.481481        1.0        0        
C1        C        0.666667        0.574075        1.0        0        
C2        C        0.708333        0.62963        1.0        0        
C3        C        0.666667        0.648148        1.0        0        
C4        C        0.708333        0.592592        1.0        0        
C1        C        0.75        0.018519        1.0        0        
C2        C        0.7916670000000001        0.074075        1.0        0        
C3        C        0.75        0.092592        1.0        0        
C4        C        0.7916670000000001        0.037037        1.0        0        
C1        C        0.75        0.12963        1.0        0        
C2        C        0.7916670000000001        0.185185        1.0        0        
C3        C        0.75        0.203703        1.0        0        
C4        C        0.7916670000000001        0.148148        1.0        0        
C1        C        0.75        0.24074099999999998        1.0        0        
C2        C        0.7916670000000001        0.296297        1.0        0        
C3        C        0.75        0.314815        1.0        0        
C4        C        0.7916670000000001        0.259259        1.0        0        
C1        C        0.75        0.351852        1.0        0        
C2        C        0.7916670000000001        0.407408        1.0        0        
C3        C        0.75        0.42592500000000005        1.0        0        
C4        C        0.7916670000000001        0.37037        1.0        0        
C1        C        0.75        0.46296300000000007        1.0        0        
C2        C        0.7916670000000001        0.518519        1.0        0        
C3        C        0.75        0.537037        1.0        0        
C4        C        0.7916670000000001        0.481481        1.0        0        
C1        C        0.75        0.574075        1.0        0        
C2        C        0.7916670000000001        0.62963        1.0        0        
C3        C        0.75        0.648148        1.0        0        
C4        C        0.7916670000000001        0.592592        1.0        0        
C1        C        0.833333        0.018519        1.0        0        
C2        C        0.875        0.074075        1.0        0        
C3        C        0.833333        0.092592        1.0        0        
C4        C        0.875        0.037037        1.0        0        
C1        C        0.833333        0.12963        1.0        0        
C2        C        0.875        0.185185        1.0        0        
C3        C        0.833333        0.203703        1.0        0        
C4        C        0.875        0.148148        1.0        0        
C1        C        0.833333        0.24074099999999998        1.0        0        
C2        C        0.875        0.296297        1.0        0        
C3        C        0.833333        0.314815        1.0        0        
C4        C        0.875        0.259259        1.0        0        
C1        C        0.833333        0.351852        1.0        0        
C2        C        0.875        0.407408        1.0        0        
C3        C        0.833333        0.42592500000000005        1.0        0        
C4        C        0.875        0.37037        1.0        0        
C1        C        0.833333        0.46296300000000007        1.0        0        
C2        C        0.875        0.518519        1.0        0        
C3        C        0.833333        0.537037        1.0        0        
C4        C        0.875        0.481481        1.0        0        
C1        C        0.833333        0.574075        1.0        0        
C2        C        0.875        0.62963        1.0        0        
C3        C        0.833333        0.648148        1.0        0        
C4        C        0.875        0.592592        1.0        0        
C1        C        0.916667        0.018519        1.0        0        
C2        C        0.958333        0.074075        1.0        0        
C3        C        0.916667        0.092592        1.0        0        
C4        C        0.958333        0.037037        1.0        0        
C1        C        0.916667        0.12963        1.0        0        
C2        C        0.958333        0.185185        1.0        0        
C3        C        0.916667        0.203703        1.0        0        
C4        C        0.958333        0.148148        1.0        0        
C1        C        0.916667        0.24074099999999998        1.0        0        
C2        C        0.958333        0.296297        1.0        0        
C3        C        0.916667        0.314815        1.0        0        
C4        C        0.958333        0.259259        1.0        0        
C1        C        0.916667        0.351852        1.0        0        
C2        C        0.958333        0.407408        1.0        0        
C3        C        0.916667        0.42592500000000005        1.0        0        
C4        C        0.958333        0.37037        1.0        0        
C1        C        0.916667        0.46296300000000007        1.0        0        
C2        C        0.958333        0.518519        1.0        0        
C3        C        0.916667        0.537037        1.0        0        
C4        C        0.958333        0.481481        1.0        0        
C1        C        0.916667        0.574075        1.0        0        
C2        C        0.958333        0.62963        1.0        0        
C3        C        0.916667        0.648148        1.0        0        
C4        C        0.958333        0.592592        1.0        0        
C1        C        0.0        0.685186        1.0        0        
C1        C        0.083333        0.685186        1.0        0        
C1        C        0.166667        0.685186        1.0        0        
C1        C        0.25        0.685186        1.0        0        
C1        C        0.333333        0.685186        1.0        0        
C1        C        0.416667        0.685186        1.0        0        
C1        C        0.5        0.685186        1.0        0        
C1        C        0.583333        0.685186        1.0        0        
C1        C        0.666667        0.685186        1.0        0        
C1        C        0.75        0.685186        1.0        0        
C1        C        0.833333        0.685186        1.0        0        
C1        C        0.916667        0.685186        1.0        0        
C2        C        0.041667        0.740741        1.0        0        
C2        C        0.125        0.740741        1.0        0        
C2        C        0.208333        0.740741        1.0        0        
C2        C        0.291667        0.740741        1.0        0        
C2        C        0.375        0.740741        1.0        0        
C2        C        0.458333        0.740741        1.0        0        
C2        C        0.541667        0.740741        1.0        0        
C2        C        0.625        0.740741        1.0        0        
C2        C        0.708333        0.740741        1.0        0        
C2        C        0.7916670000000001        0.740741        1.0        0        
C2        C        0.875        0.740741        1.0        0        
C2        C        0.958333        0.740741        1.0        0        
C3        C        0.0        0.759259        1.0        0        
C3        C        0.083333        0.759259        1.0        0        
C3        C        0.166667        0.759259        1.0        0        
C3        C        0.25        0.759259        1.0        0        
C3        C        0.333333        0.759259        1.0        0        
C3        C        0.416667        0.759259        1.0        0        
C3        C        0.5        0.759259        1.0        0        
C3        C        0.583333        0.759259        1.0        0        
C3        C        0.666667        0.759259        1.0        0        
C3        C        0.75        0.759259        1.0        0        
C3        C        0.833333        0.759259        1.0        0        
C3        C        0.916667        0.759259        1.0        0        
C4        C        0.041667        0.703703        1.0        0        
C4        C        0.125        0.703703        1.0        0        
C4        C        0.208333        0.703703        1.0        0        
C4        C        0.291667        0.703703        1.0        0        
C4        C        0.375        0.703703        1.0        0        
C4        C        0.458333        0.703703        1.0        0        
C4        C        0.541667        0.703703        1.0        0        
C4        C        0.625        0.703703        1.0        0        
C4        C        0.708333        0.703703        1.0        0        
C4        C        0.7916670000000001        0.703703        1.0        0        
C4        C        0.875        0.703703        1.0        0        
C4        C        0.958333        0.703703        1.0        0        
C1        C        0.0        0.796297        1.0        0        
C1        C        0.083333        0.796297        1.0        0        
C1        C        0.166667        0.796297        1.0        0        
C1        C        0.25        0.796297        1.0        0        
C1        C        0.333333        0.796297        1.0        0        
C1        C        0.416667        0.796297        1.0        0        
C1        C        0.5        0.796297        1.0        0        
C1        C        0.583333        0.796297        1.0        0        
C1        C        0.666667        0.796297        1.0        0        
C1        C        0.75        0.796297        1.0        0        
C1        C        0.833333        0.796297        1.0        0        
C1        C        0.916667        0.796297        1.0        0        
C2        C        0.041667        0.851852        1.0        0        
C2        C        0.125        0.851852        1.0        0        
C2        C        0.208333        0.851852        1.0        0        
C2        C        0.291667        0.851852        1.0        0        
C2        C        0.375        0.851852        1.0        0        
C2        C        0.458333        0.851852        1.0        0        
C2        C        0.541667        0.851852        1.0        0        
C2        C        0.625        0.851852        1.0        0        
C2        C        0.708333        0.851852        1.0        0        
C2        C        0.7916670000000001        0.851852        1.0        0        
C2        C        0.875        0.851852        1.0        0        
C2        C        0.958333        0.851852        1.0        0        
C3        C        0.0        0.87037        1.0        0        
C3        C        0.083333        0.87037        1.0        0        
C3        C        0.166667        0.87037        1.0        0        
C3        C        0.25        0.87037        1.0        0        
C3        C        0.333333        0.87037        1.0        0        
C3        C        0.416667        0.87037        1.0        0        
C3        C        0.5        0.87037        1.0        0        
C3        C        0.583333        0.87037        1.0        0        
C3        C        0.666667        0.87037        1.0        0        
C3        C        0.75        0.87037        1.0        0        
C3        C        0.833333        0.87037        1.0        0        
C3        C        0.916667        0.87037        1.0        0        
C4        C        0.041667        0.814814        1.0        0        
C4        C        0.125        0.814814        1.0        0        
C4        C        0.208333        0.814814        1.0        0        
C4        C        0.291667        0.814814        1.0        0        
C4        C        0.375        0.814814        1.0        0        
C4        C        0.458333        0.814814        1.0        0        
C4        C        0.541667        0.814814        1.0        0        
C4        C        0.625        0.814814        1.0        0        
C4        C        0.708333        0.814814        1.0        0        
C4        C        0.7916670000000001        0.814814        1.0        0        
C4        C        0.875        0.814814        1.0        0        
C4        C        0.958333        0.814814        1.0        0        
C1        C        0.0        0.907408        1.0        0        
C1        C        0.083333        0.907408        1.0        0        
C1        C        0.166667        0.907408        1.0        0        
C1        C        0.25        0.907408        1.0        0        
C1        C        0.333333        0.907408        1.0        0        
C1        C        0.416667        0.907408        1.0        0        
C1        C        0.5        0.907408        1.0        0        
C1        C        0.583333        0.907408        1.0        0        
C1        C        0.666667        0.907408        1.0        0        
C1        C        0.75        0.907408        1.0        0        
C1        C        0.833333        0.907408        1.0        0        
C1        C        0.916667        0.907408        1.0        0        
C2        C        0.041667        0.962963        1.0        0        
C2        C        0.125        0.962963        1.0        0        
C2        C        0.208333        0.962963        1.0        0        
C2        C        0.291667        0.962963        1.0        0        
C2        C        0.375        0.962963        1.0        0        
C2        C        0.458333        0.962963        1.0        0        
C2        C        0.541667        0.962963        1.0        0        
C2        C        0.625        0.962963        1.0        0        
C2        C        0.708333        0.962963        1.0        0        
C2        C        0.7916670000000001        0.962963        1.0        0        
C2        C        0.875        0.962963        1.0        0        
C2        C        0.958333        0.962963        1.0        0        
C3        C        0.0        0.9814809999999999        1.0        0        
C3        C        0.083333        0.9814809999999999        1.0        0        
C3        C        0.166667        0.9814809999999999        1.0        0        
C3        C        0.25        0.9814809999999999        1.0        0        
C3        C        0.333333        0.9814809999999999        1.0        0        
C3        C        0.416667        0.9814809999999999        1.0        0        
C3        C        0.5        0.9814809999999999        1.0        0        
C3        C        0.583333        0.9814809999999999        1.0        0        
C3        C        0.666667        0.9814809999999999        1.0        0        
C3        C        0.75        0.9814809999999999        1.0        0        
C3        C        0.833333        0.9814809999999999        1.0        0        
C3        C        0.916667        0.9814809999999999        1.0        0        
C4        C        0.041667        0.925925        1.0        0        
C4        C        0.125        0.925925        1.0        0        
C4        C        0.208333        0.925925        1.0        0        
C4        C        0.291667        0.925925        1.0        0        
C4        C        0.375        0.925925        1.0        0        
C4        C        0.458333        0.925925        1.0        0        
C4        C        0.541667        0.925925        1.0        0        
C4        C        0.625        0.925925        1.0        0        
C4        C        0.708333        0.925925        1.0        0        
C4        C        0.7916670000000001        0.925925        1.0        0        
C4        C        0.875        0.925925        1.0        0        
C4        C        0.958333        0.925925        1.0        0        
O_OH        O        0.083333        0.018519        0.28141868512110724        -0.64        
O_OH        O        0.083333        0.12963        0.28141868512110724        -0.64        
O_OH        O        0.083333        0.24074099999999998        0.28141868512110724        -0.64        
O_OH        O        0.083333        0.351852        0.28141868512110724        -0.64        
O_OH        O        0.083333        0.46296300000000007        0.28141868512110724        -0.64        
O_OH        O        0.083333        0.574075        0.28141868512110724        -0.64        
O_OH        O        0.25        0.018519        0.28141868512110724        -0.64        
O_OH        O        0.25        0.12963        0.28141868512110724        -0.64        
O_OH        O        0.25        0.24074099999999998        0.28141868512110724        -0.64        
O_OH        O        0.25        0.351852        0.28141868512110724        -0.64        
O_OH        O        0.25        0.46296300000000007        0.28141868512110724        -0.64        
O_OH        O        0.25        0.574075        0.28141868512110724        -0.64        
O_OH        O        0.75        0.018519        0.28141868512110724        -0.64        
O_OH        O        0.75        0.12963        0.28141868512110724        -0.64        
O_OH        O        0.75        0.24074099999999998        0.28141868512110724        -0.64        
O_OH        O        0.75        0.351852        0.28141868512110724        -0.64        
O_OH        O        0.75        0.46296300000000007        0.28141868512110724        -0.64        
O_OH        O        0.75        0.574075        0.28141868512110724        -0.64        
O_OH        O        0.916667        0.018519        0.28141868512110724        -0.64        
O_OH        O        0.916667        0.12963        0.28141868512110724        -0.64        
O_OH        O        0.916667        0.24074099999999998        0.28141868512110724        -0.64        
O_OH        O        0.916667        0.351852        0.28141868512110724        -0.64        
O_OH        O        0.916667        0.46296300000000007        0.28141868512110724        -0.64        
O_OH        O        0.916667        0.574075        0.28141868512110724        -0.64        
O_OH        O        0.083333        0.685186        0.28141868512110724        -0.64        
O_OH        O        0.25        0.685186        0.28141868512110724        -0.64        
O_OH        O        0.75        0.685186        0.28141868512110724        -0.64        
O_OH        O        0.916667        0.685186        0.28141868512110724        -0.64        
O_OH        O        0.083333        0.796297        0.28141868512110724        -0.64        
O_OH        O        0.25        0.796297        0.28141868512110724        -0.64        
O_OH        O        0.75        0.796297        0.28141868512110724        -0.64        
O_OH        O        0.916667        0.796297        0.28141868512110724        -0.64        
O_OH        O        0.083333        0.907408        0.28141868512110724        -0.64        
O_OH        O        0.25        0.907408        0.28141868512110724        -0.64        
O_OH        O        0.75        0.907408        0.28141868512110724        -0.64        
O_OH        O        0.916667        0.907408        0.28141868512110724        -0.64        
O_OH        O        0.083333        0.018519        0.7185813148788928        -0.64        
O_OH        O        0.083333        0.12963        0.7185813148788928        -0.64        
O_OH        O        0.083333        0.24074099999999998        0.7185813148788928        -0.64        
O_OH        O        0.083333        0.351852        0.7185813148788928        -0.64        
O_OH        O        0.083333        0.46296300000000007        0.7185813148788928        -0.64        
O_OH        O        0.083333        0.574075        0.7185813148788928        -0.64        
O_OH        O        0.25        0.018519        0.7185813148788928        -0.64        
O_OH        O        0.25        0.12963        0.7185813148788928        -0.64        
O_OH        O        0.25        0.24074099999999998        0.7185813148788928        -0.64        
O_OH        O        0.25        0.351852        0.7185813148788928        -0.64        
O_OH        O        0.25        0.46296300000000007        0.7185813148788928        -0.64        
O_OH        O        0.25        0.574075        0.7185813148788928        -0.64        
O_OH        O        0.75        0.018519        0.7185813148788928        -0.64        
O_OH        O        0.75        0.12963        0.7185813148788928        -0.64        
O_OH        O        0.75        0.24074099999999998        0.7185813148788928        -0.64        
O_OH        O        0.75        0.351852        0.7185813148788928        -0.64        
O_OH        O        0.75        0.46296300000000007        0.7185813148788928        -0.64        
O_OH        O        0.75        0.574075        0.7185813148788928        -0.64        
O_OH        O        0.916667        0.018519        0.7185813148788928        -0.64        
O_OH        O        0.916667        0.12963        0.7185813148788928        -0.64        
O_OH        O        0.916667        0.24074099999999998        0.7185813148788928        -0.64        
O_OH        O        0.916667        0.351852        0.7185813148788928        -0.64        
O_OH        O        0.916667        0.46296300000000007        0.7185813148788928        -0.64        
O_OH        O        0.916667        0.574075        0.7185813148788928        -0.64        
O_OH        O        0.083333        0.685186        0.7185813148788928        -0.64        
O_OH        O        0.25        0.685186        0.7185813148788928        -0.64        
O_OH        O        0.75        0.685186        0.7185813148788928        -0.64        
O_OH        O        0.916667        0.685186        0.7185813148788928        -0.64        
O_OH        O        0.083333        0.796297        0.7185813148788928        -0.64        
O_OH        O        0.25        0.796297        0.7185813148788928        -0.64        
O_OH        O        0.75        0.796297        0.7185813148788928        -0.64        
O_OH        O        0.916667        0.796297        0.7185813148788928        -0.64        
O_OH        O        0.083333        0.907408        0.7185813148788928        -0.64        
O_OH        O        0.25        0.907408        0.7185813148788928        -0.64        
O_OH        O        0.75        0.907408        0.7185813148788928        -0.64        
O_OH        O        0.916667        0.907408        0.7185813148788928        -0.64        
H_OH        H        0.08417932776285345        0.0419633964922687        0.7069481314878893        0.44        
H_OH        H        0.0987388441026697        0.1498627112860112        0.7069481314878893        0.44        
H_OH        H        0.06940649238811251        0.26159973518619983        0.7069481314878893        0.44        
H_OH        H        0.061072926532251604        0.36786174020008816        0.7069481314878893        0.44        
H_OH        H        0.09340469430548333        0.48509732825343266        0.7069481314878893        0.44        
H_OH        H        0.10285379373819792        0.5920794606978611        0.7069481314878893        0.44        
H_OH        H        0.2218833930676013        0.027541650117376883        0.7069481314878893        0.44        
H_OH        H        0.2347984524311693        0.1499541124808339        0.7069481314878893        0.44        
H_OH        H        0.2737416384181936        0.2554348045261973        0.7069481314878893        0.44        
H_OH        H        0.28039476052170925        0.3533965187723833        0.7069481314878893        0.44        
H_OH        H        0.262051120388252        0.4845029229277036        0.7069481314878893        0.44        
H_OH        H        0.27339901865083        0.5890910861058339        0.7069481314878893        0.44        
H_OH        H        0.7696712510790056        0.03642611756891166        0.7069481314878893        0.44        
H_OH        H        0.7617830840142571        0.15125765637359598        0.7069481314878893        0.44        
H_OH        H        0.7195568674536439        0.24154158354543573        0.7069481314878893        0.44        
H_OH        H        0.77196897219541        0.368098369313522        0.7069481314878893        0.44        
H_OH        H        0.7639512122901932        0.4838119459479619        0.7069481314878893        0.44        
H_OH        H        0.7369288962408157        0.5952593695676495        0.7069481314878893        0.44        
H_OH        H        0.8915126421776813        0.03174615138794385        0.7069481314878893        0.44        
H_OH        H        0.8945259798719092        0.1457373128387575        0.7069481314878893        0.44        
H_OH        H        0.8869181723489609        0.2457824418536418        0.7069481314878893        0.44        
H_OH        H        0.925734512327415        0.3742422252978489        0.7069481314878893        0.44        
H_OH        H        0.9059364377662777        0.48491301654935154        0.7069481314878893        0.44        
H_OH        H        0.923120961152747        0.596995971519545        0.7069481314878893        0.44        
H_OH        H        0.09181985251007917        0.7077107630265128        0.7069481314878893        0.44        
H_OH        H        0.2791866067324231        0.6918986242411522        0.7069481314878893        0.44        
H_OH        H        0.7618702558735896        0.7067853788208356        0.7069481314878893        0.44        
H_OH        H        0.8928066817900636        0.6997653956111642        0.7069481314878893        0.44        
H_OH        H        0.10713205230229916        0.8109356396494699        0.7069481314878893        0.44        
H_OH        H        0.28034593047106904        0.7983326443745713        0.7069481314878893        0.44        
H_OH        H        0.7463624169021517        0.8195826189404716        0.7069481314878893        0.44        
H_OH        H        0.922413250409918        0.8193293585562927        0.7069481314878893        0.44        
H_OH        H        0.052905280641285315        0.9085021358146714        0.7069481314878893        0.44        
H_OH        H        0.25153253124319874        0.9308317487609254        0.7069481314878893        0.44        
H_OH        H        0.7780648843969364        0.9165256138890693        0.7069481314878893        0.44        
H_OH        H        0.931801566096841        0.9277617256750862        0.7069481314878893        0.44        
