data_graphite_ortho

_audit_creation_method RASPA-1.0
_audit_creation_date 2012-2-3
_audit_author_name 'David Dubbeldam'

_cell_length_a    39.36    
_cell_length_b    38.34    
_cell_length_c    34.6    
_cell_angle_alpha 90
_cell_angle_beta  90
_cell_angle_gamma 90
_cell_volume      52213.56      

_symmetry_cell_setting          triclinic
_symmetry_space_group_name_Hall 'P 1'
_symmetry_space_group_name_H-M  'P 1'
_symmetry_Int_Tables_number     1

_symmetry_equiv_pos_as_xyz 'x,y,z'

loop_
_atom_site_label
_atom_site_type_symbol
_atom_site_fract_x
_atom_site_fract_y
_atom_site_fract_z
_atom_site_charge
C_FG        C        0.0        0.018519        0.05113291907514451        0.2        
C2        C        0.03125        0.074075        0.05113291907514451        0        
C3        C        0.0        0.092592        0.05113291907514451        0        
C4        C        0.03125        0.037037        0.05113291907514451        0        
C1        C        0.0        0.12963        0.05113291907514451        0        
C2        C        0.03125        0.185185        0.05113291907514451        0        
C3        C        0.0        0.203703        0.05113291907514451        0        
C4        C        0.03125        0.148148        0.05113291907514451        0        
C_FG        C        0.0        0.24074099999999998        0.05113291907514451        0.2        
C2        C        0.03125        0.296297        0.05113291907514451        0        
C3        C        0.0        0.314815        0.05113291907514451        0        
C4        C        0.03125        0.259259        0.05113291907514451        0        
C1        C        0.0        0.351852        0.05113291907514451        0        
C2        C        0.03125        0.407408        0.05113291907514451        0        
C3        C        0.0        0.42592500000000005        0.05113291907514451        0        
C4        C        0.03125        0.37037        0.05113291907514451        0        
C_FG        C        0.0        0.46296300000000007        0.05113291907514451        0.2        
C2        C        0.03125        0.518519        0.05113291907514451        0        
C3        C        0.0        0.537037        0.05113291907514451        0        
C4        C        0.03125        0.481481        0.05113291907514451        0        
C1        C        0.0        0.574075        0.05113291907514451        0        
C2        C        0.03125        0.62963        0.05113291907514451        0        
C3        C        0.0        0.648148        0.05113291907514451        0        
C4        C        0.03125        0.592592        0.05113291907514451        0        
C1        C        0.0625        0.018519        0.05113291907514451        0        
C2        C        0.09375        0.074075        0.05113291907514451        0        
C3        C        0.0625        0.092592        0.05113291907514451        0        
C4        C        0.09375        0.037037        0.05113291907514451        0        
C1        C        0.0625        0.12963        0.05113291907514451        0        
C2        C        0.09375        0.185185        0.05113291907514451        0        
C3        C        0.0625        0.203703        0.05113291907514451        0        
C4        C        0.09375        0.148148        0.05113291907514451        0        
C1        C        0.0625        0.24074099999999998        0.05113291907514451        0        
C2        C        0.09375        0.296297        0.05113291907514451        0        
C3        C        0.0625        0.314815        0.05113291907514451        0        
C4        C        0.09375        0.259259        0.05113291907514451        0        
C1        C        0.0625        0.351852        0.05113291907514451        0        
C2        C        0.09375        0.407408        0.05113291907514451        0        
C3        C        0.0625        0.42592500000000005        0.05113291907514451        0        
C4        C        0.09375        0.37037        0.05113291907514451        0        
C1        C        0.0625        0.46296300000000007        0.05113291907514451        0        
C2        C        0.09375        0.518519        0.05113291907514451        0        
C3        C        0.0625        0.537037        0.05113291907514451        0        
C4        C        0.09375        0.481481        0.05113291907514451        0        
C1        C        0.0625        0.574075        0.05113291907514451        0        
C2        C        0.09375        0.62963        0.05113291907514451        0        
C3        C        0.0625        0.648148        0.05113291907514451        0        
C4        C        0.09375        0.592592        0.05113291907514451        0        
C1        C        0.125        0.018519        0.05113291907514451        0        
C2        C        0.15625        0.074075        0.05113291907514451        0        
C3        C        0.125        0.092592        0.05113291907514451        0        
C4        C        0.15625        0.037037        0.05113291907514451        0        
C1        C        0.125        0.12963        0.05113291907514451        0        
C2        C        0.15625        0.185185        0.05113291907514451        0        
C3        C        0.125        0.203703        0.05113291907514451        0        
C4        C        0.15625        0.148148        0.05113291907514451        0        
C1        C        0.125        0.24074099999999998        0.05113291907514451        0        
C2        C        0.15625        0.296297        0.05113291907514451        0        
C3        C        0.125        0.314815        0.05113291907514451        0        
C4        C        0.15625        0.259259        0.05113291907514451        0        
C1        C        0.125        0.351852        0.05113291907514451        0        
C2        C        0.15625        0.407408        0.05113291907514451        0        
C3        C        0.125        0.42592500000000005        0.05113291907514451        0        
C4        C        0.15625        0.37037        0.05113291907514451        0        
C1        C        0.125        0.46296300000000007        0.05113291907514451        0        
C2        C        0.15625        0.518519        0.05113291907514451        0        
C3        C        0.125        0.537037        0.05113291907514451        0        
C4        C        0.15625        0.481481        0.05113291907514451        0        
C1        C        0.125        0.574075        0.05113291907514451        0        
C2        C        0.15625        0.62963        0.05113291907514451        0        
C3        C        0.125        0.648148        0.05113291907514451        0        
C4        C        0.15625        0.592592        0.05113291907514451        0        
C_FG        C        0.1875        0.018519        0.05113291907514451        0.2        
C2        C        0.21875        0.074075        0.05113291907514451        0        
C3        C        0.1875        0.092592        0.05113291907514451        0        
C4        C        0.21875        0.037037        0.05113291907514451        0        
C1        C        0.1875        0.12963        0.05113291907514451        0        
C2        C        0.21875        0.185185        0.05113291907514451        0        
C3        C        0.1875        0.203703        0.05113291907514451        0        
C4        C        0.21875        0.148148        0.05113291907514451        0        
C_FG        C        0.1875        0.24074099999999998        0.05113291907514451        0.2        
C2        C        0.21875        0.296297        0.05113291907514451        0        
C3        C        0.1875        0.314815        0.05113291907514451        0        
C4        C        0.21875        0.259259        0.05113291907514451        0        
C1        C        0.1875        0.351852        0.05113291907514451        0        
C2        C        0.21875        0.407408        0.05113291907514451        0        
C3        C        0.1875        0.42592500000000005        0.05113291907514451        0        
C4        C        0.21875        0.37037        0.05113291907514451        0        
C_FG        C        0.1875        0.46296300000000007        0.05113291907514451        0.2        
C2        C        0.21875        0.518519        0.05113291907514451        0        
C3        C        0.1875        0.537037        0.05113291907514451        0        
C4        C        0.21875        0.481481        0.05113291907514451        0        
C1        C        0.1875        0.574075        0.05113291907514451        0        
C2        C        0.21875        0.62963        0.05113291907514451        0        
C3        C        0.1875        0.648148        0.05113291907514451        0        
C4        C        0.21875        0.592592        0.05113291907514451        0        
C1        C        0.25        0.018519        0.05113291907514451        0        
C2        C        0.28125        0.074075        0.05113291907514451        0        
C3        C        0.25        0.092592        0.05113291907514451        0        
C4        C        0.28125        0.037037        0.05113291907514451        0        
C1        C        0.25        0.12963        0.05113291907514451        0        
C2        C        0.28125        0.185185        0.05113291907514451        0        
C3        C        0.25        0.203703        0.05113291907514451        0        
C4        C        0.28125        0.148148        0.05113291907514451        0        
C1        C        0.25        0.24074099999999998        0.05113291907514451        0        
C2        C        0.28125        0.296297        0.05113291907514451        0        
C3        C        0.25        0.314815        0.05113291907514451        0        
C4        C        0.28125        0.259259        0.05113291907514451        0        
C1        C        0.25        0.351852        0.05113291907514451        0        
C2        C        0.28125        0.407408        0.05113291907514451        0        
C3        C        0.25        0.42592500000000005        0.05113291907514451        0        
C4        C        0.28125        0.37037        0.05113291907514451        0        
C1        C        0.25        0.46296300000000007        0.05113291907514451        0        
C2        C        0.28125        0.518519        0.05113291907514451        0        
C3        C        0.25        0.537037        0.05113291907514451        0        
C4        C        0.28125        0.481481        0.05113291907514451        0        
C1        C        0.25        0.574075        0.05113291907514451        0        
C2        C        0.28125        0.62963        0.05113291907514451        0        
C3        C        0.25        0.648148        0.05113291907514451        0        
C4        C        0.28125        0.592592        0.05113291907514451        0        
C1        C        0.3125        0.018519        0.05113291907514451        0        
C2        C        0.34375        0.074075        0.05113291907514451        0        
C3        C        0.3125        0.092592        0.05113291907514451        0        
C4        C        0.34375        0.037037        0.05113291907514451        0        
C1        C        0.3125        0.12963        0.05113291907514451        0        
C2        C        0.34375        0.185185        0.05113291907514451        0        
C3        C        0.3125        0.203703        0.05113291907514451        0        
C4        C        0.34375        0.148148        0.05113291907514451        0        
C1        C        0.3125        0.24074099999999998        0.05113291907514451        0        
C2        C        0.34375        0.296297        0.05113291907514451        0        
C3        C        0.3125        0.314815        0.05113291907514451        0        
C4        C        0.34375        0.259259        0.05113291907514451        0        
C1        C        0.3125        0.351852        0.05113291907514451        0        
C2        C        0.34375        0.407408        0.05113291907514451        0        
C3        C        0.3125        0.42592500000000005        0.05113291907514451        0        
C4        C        0.34375        0.37037        0.05113291907514451        0        
C1        C        0.3125        0.46296300000000007        0.05113291907514451        0        
C2        C        0.34375        0.518519        0.05113291907514451        0        
C3        C        0.3125        0.537037        0.05113291907514451        0        
C4        C        0.34375        0.481481        0.05113291907514451        0        
C1        C        0.3125        0.574075        0.05113291907514451        0        
C2        C        0.34375        0.62963        0.05113291907514451        0        
C3        C        0.3125        0.648148        0.05113291907514451        0        
C4        C        0.34375        0.592592        0.05113291907514451        0        
C_FG        C        0.375        0.018519        0.05113291907514451        0.2        
C2        C        0.40625        0.074075        0.05113291907514451        0        
C3        C        0.375        0.092592        0.05113291907514451        0        
C4        C        0.40625        0.037037        0.05113291907514451        0        
C1        C        0.375        0.12963        0.05113291907514451        0        
C2        C        0.40625        0.185185        0.05113291907514451        0        
C3        C        0.375        0.203703        0.05113291907514451        0        
C4        C        0.40625        0.148148        0.05113291907514451        0        
C_FG        C        0.375        0.24074099999999998        0.05113291907514451        0.2        
C2        C        0.40625        0.296297        0.05113291907514451        0        
C3        C        0.375        0.314815        0.05113291907514451        0        
C4        C        0.40625        0.259259        0.05113291907514451        0        
C1        C        0.375        0.351852        0.05113291907514451        0        
C2        C        0.40625        0.407408        0.05113291907514451        0        
C3        C        0.375        0.42592500000000005        0.05113291907514451        0        
C4        C        0.40625        0.37037        0.05113291907514451        0        
C_FG        C        0.375        0.46296300000000007        0.05113291907514451        0.2        
C2        C        0.40625        0.518519        0.05113291907514451        0        
C3        C        0.375        0.537037        0.05113291907514451        0        
C4        C        0.40625        0.481481        0.05113291907514451        0        
C1        C        0.375        0.574075        0.05113291907514451        0        
C2        C        0.40625        0.62963        0.05113291907514451        0        
C3        C        0.375        0.648148        0.05113291907514451        0        
C4        C        0.40625        0.592592        0.05113291907514451        0        
C1        C        0.4375        0.018519        0.05113291907514451        0        
C2        C        0.46875        0.074075        0.05113291907514451        0        
C3        C        0.4375        0.092592        0.05113291907514451        0        
C4        C        0.46875        0.037037        0.05113291907514451        0        
C1        C        0.4375        0.12963        0.05113291907514451        0        
C2        C        0.46875        0.185185        0.05113291907514451        0        
C3        C        0.4375        0.203703        0.05113291907514451        0        
C4        C        0.46875        0.148148        0.05113291907514451        0        
C1        C        0.4375        0.24074099999999998        0.05113291907514451        0        
C2        C        0.46875        0.296297        0.05113291907514451        0        
C3        C        0.4375        0.314815        0.05113291907514451        0        
C4        C        0.46875        0.259259        0.05113291907514451        0        
C1        C        0.4375        0.351852        0.05113291907514451        0        
C2        C        0.46875        0.407408        0.05113291907514451        0        
C3        C        0.4375        0.42592500000000005        0.05113291907514451        0        
C4        C        0.46875        0.37037        0.05113291907514451        0        
C1        C        0.4375        0.46296300000000007        0.05113291907514451        0        
C2        C        0.46875        0.518519        0.05113291907514451        0        
C3        C        0.4375        0.537037        0.05113291907514451        0        
C4        C        0.46875        0.481481        0.05113291907514451        0        
C1        C        0.4375        0.574075        0.05113291907514451        0        
C2        C        0.46875        0.62963        0.05113291907514451        0        
C3        C        0.4375        0.648148        0.05113291907514451        0        
C4        C        0.46875        0.592592        0.05113291907514451        0        
C1        C        0.5        0.018519        0.05113291907514451        0        
C2        C        0.53125        0.074075        0.05113291907514451        0        
C3        C        0.5        0.092592        0.05113291907514451        0        
C4        C        0.53125        0.037037        0.05113291907514451        0        
C1        C        0.5        0.12963        0.05113291907514451        0        
C2        C        0.53125        0.185185        0.05113291907514451        0        
C3        C        0.5        0.203703        0.05113291907514451        0        
C4        C        0.53125        0.148148        0.05113291907514451        0        
C1        C        0.5        0.24074099999999998        0.05113291907514451        0        
C2        C        0.53125        0.296297        0.05113291907514451        0        
C3        C        0.5        0.314815        0.05113291907514451        0        
C4        C        0.53125        0.259259        0.05113291907514451        0        
C1        C        0.5        0.351852        0.05113291907514451        0        
C2        C        0.53125        0.407408        0.05113291907514451        0        
C3        C        0.5        0.42592500000000005        0.05113291907514451        0        
C4        C        0.53125        0.37037        0.05113291907514451        0        
C1        C        0.5        0.46296300000000007        0.05113291907514451        0        
C2        C        0.53125        0.518519        0.05113291907514451        0        
C3        C        0.5        0.537037        0.05113291907514451        0        
C4        C        0.53125        0.481481        0.05113291907514451        0        
C1        C        0.5        0.574075        0.05113291907514451        0        
C2        C        0.53125        0.62963        0.05113291907514451        0        
C3        C        0.5        0.648148        0.05113291907514451        0        
C4        C        0.53125        0.592592        0.05113291907514451        0        
C_FG        C        0.5625        0.018519        0.05113291907514451        0.2        
C2        C        0.59375        0.074075        0.05113291907514451        0        
C3        C        0.5625        0.092592        0.05113291907514451        0        
C4        C        0.59375        0.037037        0.05113291907514451        0        
C1        C        0.5625        0.12963        0.05113291907514451        0        
C2        C        0.59375        0.185185        0.05113291907514451        0        
C3        C        0.5625        0.203703        0.05113291907514451        0        
C4        C        0.59375        0.148148        0.05113291907514451        0        
C_FG        C        0.5625        0.24074099999999998        0.05113291907514451        0.2        
C2        C        0.59375        0.296297        0.05113291907514451        0        
C3        C        0.5625        0.314815        0.05113291907514451        0        
C4        C        0.59375        0.259259        0.05113291907514451        0        
C1        C        0.5625        0.351852        0.05113291907514451        0        
C2        C        0.59375        0.407408        0.05113291907514451        0        
C3        C        0.5625        0.42592500000000005        0.05113291907514451        0        
C4        C        0.59375        0.37037        0.05113291907514451        0        
C_FG        C        0.5625        0.46296300000000007        0.05113291907514451        0.2        
C2        C        0.59375        0.518519        0.05113291907514451        0        
C3        C        0.5625        0.537037        0.05113291907514451        0        
C4        C        0.59375        0.481481        0.05113291907514451        0        
C1        C        0.5625        0.574075        0.05113291907514451        0        
C2        C        0.59375        0.62963        0.05113291907514451        0        
C3        C        0.5625        0.648148        0.05113291907514451        0        
C4        C        0.59375        0.592592        0.05113291907514451        0        
C1        C        0.625        0.018519        0.05113291907514451        0        
C2        C        0.65625        0.074075        0.05113291907514451        0        
C3        C        0.625        0.092592        0.05113291907514451        0        
C4        C        0.65625        0.037037        0.05113291907514451        0        
C1        C        0.625        0.12963        0.05113291907514451        0        
C2        C        0.65625        0.185185        0.05113291907514451        0        
C3        C        0.625        0.203703        0.05113291907514451        0        
C4        C        0.65625        0.148148        0.05113291907514451        0        
C1        C        0.625        0.24074099999999998        0.05113291907514451        0        
C2        C        0.65625        0.296297        0.05113291907514451        0        
C3        C        0.625        0.314815        0.05113291907514451        0        
C4        C        0.65625        0.259259        0.05113291907514451        0        
C1        C        0.625        0.351852        0.05113291907514451        0        
C2        C        0.65625        0.407408        0.05113291907514451        0        
C3        C        0.625        0.42592500000000005        0.05113291907514451        0        
C4        C        0.65625        0.37037        0.05113291907514451        0        
C1        C        0.625        0.46296300000000007        0.05113291907514451        0        
C2        C        0.65625        0.518519        0.05113291907514451        0        
C3        C        0.625        0.537037        0.05113291907514451        0        
C4        C        0.65625        0.481481        0.05113291907514451        0        
C1        C        0.625        0.574075        0.05113291907514451        0        
C2        C        0.65625        0.62963        0.05113291907514451        0        
C3        C        0.625        0.648148        0.05113291907514451        0        
C4        C        0.65625        0.592592        0.05113291907514451        0        
C1        C        0.6875        0.018519        0.05113291907514451        0        
C2        C        0.71875        0.074075        0.05113291907514451        0        
C3        C        0.6875        0.092592        0.05113291907514451        0        
C4        C        0.71875        0.037037        0.05113291907514451        0        
C1        C        0.6875        0.12963        0.05113291907514451        0        
C2        C        0.71875        0.185185        0.05113291907514451        0        
C3        C        0.6875        0.203703        0.05113291907514451        0        
C4        C        0.71875        0.148148        0.05113291907514451        0        
C1        C        0.6875        0.24074099999999998        0.05113291907514451        0        
C2        C        0.71875        0.296297        0.05113291907514451        0        
C3        C        0.6875        0.314815        0.05113291907514451        0        
C4        C        0.71875        0.259259        0.05113291907514451        0        
C1        C        0.6875        0.351852        0.05113291907514451        0        
C2        C        0.71875        0.407408        0.05113291907514451        0        
C3        C        0.6875        0.42592500000000005        0.05113291907514451        0        
C4        C        0.71875        0.37037        0.05113291907514451        0        
C1        C        0.6875        0.46296300000000007        0.05113291907514451        0        
C2        C        0.71875        0.518519        0.05113291907514451        0        
C3        C        0.6875        0.537037        0.05113291907514451        0        
C4        C        0.71875        0.481481        0.05113291907514451        0        
C1        C        0.6875        0.574075        0.05113291907514451        0        
C2        C        0.71875        0.62963        0.05113291907514451        0        
C3        C        0.6875        0.648148        0.05113291907514451        0        
C4        C        0.71875        0.592592        0.05113291907514451        0        
C_FG        C        0.75        0.018519        0.05113291907514451        0.2        
C2        C        0.78125        0.074075        0.05113291907514451        0        
C3        C        0.75        0.092592        0.05113291907514451        0        
C4        C        0.78125        0.037037        0.05113291907514451        0        
C1        C        0.75        0.12963        0.05113291907514451        0        
C2        C        0.78125        0.185185        0.05113291907514451        0        
C3        C        0.75        0.203703        0.05113291907514451        0        
C4        C        0.78125        0.148148        0.05113291907514451        0        
C_FG        C        0.75        0.24074099999999998        0.05113291907514451        0.2        
C2        C        0.78125        0.296297        0.05113291907514451        0        
C3        C        0.75        0.314815        0.05113291907514451        0        
C4        C        0.78125        0.259259        0.05113291907514451        0        
C1        C        0.75        0.351852        0.05113291907514451        0        
C2        C        0.78125        0.407408        0.05113291907514451        0        
C3        C        0.75        0.42592500000000005        0.05113291907514451        0        
C4        C        0.78125        0.37037        0.05113291907514451        0        
C_FG        C        0.75        0.46296300000000007        0.05113291907514451        0.2        
C2        C        0.78125        0.518519        0.05113291907514451        0        
C3        C        0.75        0.537037        0.05113291907514451        0        
C4        C        0.78125        0.481481        0.05113291907514451        0        
C1        C        0.75        0.574075        0.05113291907514451        0        
C2        C        0.78125        0.62963        0.05113291907514451        0        
C3        C        0.75        0.648148        0.05113291907514451        0        
C4        C        0.78125        0.592592        0.05113291907514451        0        
C1        C        0.8125        0.018519        0.05113291907514451        0        
C2        C        0.84375        0.074075        0.05113291907514451        0        
C3        C        0.8125        0.092592        0.05113291907514451        0        
C4        C        0.84375        0.037037        0.05113291907514451        0        
C1        C        0.8125        0.12963        0.05113291907514451        0        
C2        C        0.84375        0.185185        0.05113291907514451        0        
C3        C        0.8125        0.203703        0.05113291907514451        0        
C4        C        0.84375        0.148148        0.05113291907514451        0        
C1        C        0.8125        0.24074099999999998        0.05113291907514451        0        
C2        C        0.84375        0.296297        0.05113291907514451        0        
C3        C        0.8125        0.314815        0.05113291907514451        0        
C4        C        0.84375        0.259259        0.05113291907514451        0        
C1        C        0.8125        0.351852        0.05113291907514451        0        
C2        C        0.84375        0.407408        0.05113291907514451        0        
C3        C        0.8125        0.42592500000000005        0.05113291907514451        0        
C4        C        0.84375        0.37037        0.05113291907514451        0        
C1        C        0.8125        0.46296300000000007        0.05113291907514451        0        
C2        C        0.84375        0.518519        0.05113291907514451        0        
C3        C        0.8125        0.537037        0.05113291907514451        0        
C4        C        0.84375        0.481481        0.05113291907514451        0        
C1        C        0.8125        0.574075        0.05113291907514451        0        
C2        C        0.84375        0.62963        0.05113291907514451        0        
C3        C        0.8125        0.648148        0.05113291907514451        0        
C4        C        0.84375        0.592592        0.05113291907514451        0        
C1        C        0.875        0.018519        0.05113291907514451        0        
C2        C        0.9062500000000001        0.074075        0.05113291907514451        0        
C3        C        0.875        0.092592        0.05113291907514451        0        
C4        C        0.9062500000000001        0.037037        0.05113291907514451        0        
C1        C        0.875        0.12963        0.05113291907514451        0        
C2        C        0.9062500000000001        0.185185        0.05113291907514451        0        
C3        C        0.875        0.203703        0.05113291907514451        0        
C4        C        0.9062500000000001        0.148148        0.05113291907514451        0        
C1        C        0.875        0.24074099999999998        0.05113291907514451        0        
C2        C        0.9062500000000001        0.296297        0.05113291907514451        0        
C3        C        0.875        0.314815        0.05113291907514451        0        
C4        C        0.9062500000000001        0.259259        0.05113291907514451        0        
C1        C        0.875        0.351852        0.05113291907514451        0        
C2        C        0.9062500000000001        0.407408        0.05113291907514451        0        
C3        C        0.875        0.42592500000000005        0.05113291907514451        0        
C4        C        0.9062500000000001        0.37037        0.05113291907514451        0        
C1        C        0.875        0.46296300000000007        0.05113291907514451        0        
C2        C        0.9062500000000001        0.518519        0.05113291907514451        0        
C3        C        0.875        0.537037        0.05113291907514451        0        
C4        C        0.9062500000000001        0.481481        0.05113291907514451        0        
C1        C        0.875        0.574075        0.05113291907514451        0        
C2        C        0.9062500000000001        0.62963        0.05113291907514451        0        
C3        C        0.875        0.648148        0.05113291907514451        0        
C4        C        0.9062500000000001        0.592592        0.05113291907514451        0        
C_FG        C        0.9375        0.018519        0.05113291907514451        0.2        
C2        C        0.9687500000000001        0.074075        0.05113291907514451        0        
C3        C        0.9375        0.092592        0.05113291907514451        0        
C4        C        0.9687500000000001        0.037037        0.05113291907514451        0        
C1        C        0.9375        0.12963        0.05113291907514451        0        
C2        C        0.9687500000000001        0.185185        0.05113291907514451        0        
C3        C        0.9375        0.203703        0.05113291907514451        0        
C4        C        0.9687500000000001        0.148148        0.05113291907514451        0        
C_FG        C        0.9375        0.24074099999999998        0.05113291907514451        0.2        
C2        C        0.9687500000000001        0.296297        0.05113291907514451        0        
C3        C        0.9375        0.314815        0.05113291907514451        0        
C4        C        0.9687500000000001        0.259259        0.05113291907514451        0        
C1        C        0.9375        0.351852        0.05113291907514451        0        
C2        C        0.9687500000000001        0.407408        0.05113291907514451        0        
C3        C        0.9375        0.42592500000000005        0.05113291907514451        0        
C4        C        0.9687500000000001        0.37037        0.05113291907514451        0        
C_FG        C        0.9375        0.46296300000000007        0.05113291907514451        0.2        
C2        C        0.9687500000000001        0.518519        0.05113291907514451        0        
C3        C        0.9375        0.537037        0.05113291907514451        0        
C4        C        0.9687500000000001        0.481481        0.05113291907514451        0        
C1        C        0.9375        0.574075        0.05113291907514451        0        
C2        C        0.9687500000000001        0.62963        0.05113291907514451        0        
C3        C        0.9375        0.648148        0.05113291907514451        0        
C4        C        0.9687500000000001        0.592592        0.05113291907514451        0        
C_FG        C        0.0        0.685186        0.05113291907514451        0.2        
C1        C        0.0625        0.685186        0.05113291907514451        0        
C1        C        0.125        0.685186        0.05113291907514451        0        
C_FG        C        0.1875        0.685186        0.05113291907514451        0.2        
C1        C        0.25        0.685186        0.05113291907514451        0        
C1        C        0.3125        0.685186        0.05113291907514451        0        
C_FG        C        0.375        0.685186        0.05113291907514451        0.2        
C1        C        0.4375        0.685186        0.05113291907514451        0        
C1        C        0.5        0.685186        0.05113291907514451        0        
C_FG        C        0.5625        0.685186        0.05113291907514451        0.2        
C1        C        0.625        0.685186        0.05113291907514451        0        
C1        C        0.6875        0.685186        0.05113291907514451        0        
C_FG        C        0.75        0.685186        0.05113291907514451        0.2        
C1        C        0.8125        0.685186        0.05113291907514451        0        
C1        C        0.875        0.685186        0.05113291907514451        0        
C_FG        C        0.9375        0.685186        0.05113291907514451        0.2        
C2        C        0.03125        0.740741        0.05113291907514451        0        
C2        C        0.09375        0.740741        0.05113291907514451        0        
C2        C        0.15625        0.740741        0.05113291907514451        0        
C2        C        0.21875        0.740741        0.05113291907514451        0        
C2        C        0.28125        0.740741        0.05113291907514451        0        
C2        C        0.34375        0.740741        0.05113291907514451        0        
C2        C        0.40625        0.740741        0.05113291907514451        0        
C2        C        0.46875        0.740741        0.05113291907514451        0        
C2        C        0.53125        0.740741        0.05113291907514451        0        
C2        C        0.59375        0.740741        0.05113291907514451        0        
C2        C        0.65625        0.740741        0.05113291907514451        0        
C2        C        0.71875        0.740741        0.05113291907514451        0        
C2        C        0.78125        0.740741        0.05113291907514451        0        
C2        C        0.84375        0.740741        0.05113291907514451        0        
C2        C        0.9062500000000001        0.740741        0.05113291907514451        0        
C2        C        0.9687500000000001        0.740741        0.05113291907514451        0        
C3        C        0.0        0.759259        0.05113291907514451        0        
C3        C        0.0625        0.759259        0.05113291907514451        0        
C3        C        0.125        0.759259        0.05113291907514451        0        
C3        C        0.1875        0.759259        0.05113291907514451        0        
C3        C        0.25        0.759259        0.05113291907514451        0        
C3        C        0.3125        0.759259        0.05113291907514451        0        
C3        C        0.375        0.759259        0.05113291907514451        0        
C3        C        0.4375        0.759259        0.05113291907514451        0        
C3        C        0.5        0.759259        0.05113291907514451        0        
C3        C        0.5625        0.759259        0.05113291907514451        0        
C3        C        0.625        0.759259        0.05113291907514451        0        
C3        C        0.6875        0.759259        0.05113291907514451        0        
C3        C        0.75        0.759259        0.05113291907514451        0        
C3        C        0.8125        0.759259        0.05113291907514451        0        
C3        C        0.875        0.759259        0.05113291907514451        0        
C3        C        0.9375        0.759259        0.05113291907514451        0        
C4        C        0.03125        0.703703        0.05113291907514451        0        
C4        C        0.09375        0.703703        0.05113291907514451        0        
C4        C        0.15625        0.703703        0.05113291907514451        0        
C4        C        0.21875        0.703703        0.05113291907514451        0        
C4        C        0.28125        0.703703        0.05113291907514451        0        
C4        C        0.34375        0.703703        0.05113291907514451        0        
C4        C        0.40625        0.703703        0.05113291907514451        0        
C4        C        0.46875        0.703703        0.05113291907514451        0        
C4        C        0.53125        0.703703        0.05113291907514451        0        
C4        C        0.59375        0.703703        0.05113291907514451        0        
C4        C        0.65625        0.703703        0.05113291907514451        0        
C4        C        0.71875        0.703703        0.05113291907514451        0        
C4        C        0.78125        0.703703        0.05113291907514451        0        
C4        C        0.84375        0.703703        0.05113291907514451        0        
C4        C        0.9062500000000001        0.703703        0.05113291907514451        0        
C4        C        0.9687500000000001        0.703703        0.05113291907514451        0        
C1        C        0.0        0.796297        0.05113291907514451        0        
C1        C        0.0625        0.796297        0.05113291907514451        0        
C1        C        0.125        0.796297        0.05113291907514451        0        
C1        C        0.1875        0.796297        0.05113291907514451        0        
C1        C        0.25        0.796297        0.05113291907514451        0        
C1        C        0.3125        0.796297        0.05113291907514451        0        
C1        C        0.375        0.796297        0.05113291907514451        0        
C1        C        0.4375        0.796297        0.05113291907514451        0        
C1        C        0.5        0.796297        0.05113291907514451        0        
C1        C        0.5625        0.796297        0.05113291907514451        0        
C1        C        0.625        0.796297        0.05113291907514451        0        
C1        C        0.6875        0.796297        0.05113291907514451        0        
C1        C        0.75        0.796297        0.05113291907514451        0        
C1        C        0.8125        0.796297        0.05113291907514451        0        
C1        C        0.875        0.796297        0.05113291907514451        0        
C1        C        0.9375        0.796297        0.05113291907514451        0        
C2        C        0.03125        0.851852        0.05113291907514451        0        
C2        C        0.09375        0.851852        0.05113291907514451        0        
C2        C        0.15625        0.851852        0.05113291907514451        0        
C2        C        0.21875        0.851852        0.05113291907514451        0        
C2        C        0.28125        0.851852        0.05113291907514451        0        
C2        C        0.34375        0.851852        0.05113291907514451        0        
C2        C        0.40625        0.851852        0.05113291907514451        0        
C2        C        0.46875        0.851852        0.05113291907514451        0        
C2        C        0.53125        0.851852        0.05113291907514451        0        
C2        C        0.59375        0.851852        0.05113291907514451        0        
C2        C        0.65625        0.851852        0.05113291907514451        0        
C2        C        0.71875        0.851852        0.05113291907514451        0        
C2        C        0.78125        0.851852        0.05113291907514451        0        
C2        C        0.84375        0.851852        0.05113291907514451        0        
C2        C        0.9062500000000001        0.851852        0.05113291907514451        0        
C2        C        0.9687500000000001        0.851852        0.05113291907514451        0        
C3        C        0.0        0.87037        0.05113291907514451        0        
C3        C        0.0625        0.87037        0.05113291907514451        0        
C3        C        0.125        0.87037        0.05113291907514451        0        
C3        C        0.1875        0.87037        0.05113291907514451        0        
C3        C        0.25        0.87037        0.05113291907514451        0        
C3        C        0.3125        0.87037        0.05113291907514451        0        
C3        C        0.375        0.87037        0.05113291907514451        0        
C3        C        0.4375        0.87037        0.05113291907514451        0        
C3        C        0.5        0.87037        0.05113291907514451        0        
C3        C        0.5625        0.87037        0.05113291907514451        0        
C3        C        0.625        0.87037        0.05113291907514451        0        
C3        C        0.6875        0.87037        0.05113291907514451        0        
C3        C        0.75        0.87037        0.05113291907514451        0        
C3        C        0.8125        0.87037        0.05113291907514451        0        
C3        C        0.875        0.87037        0.05113291907514451        0        
C3        C        0.9375        0.87037        0.05113291907514451        0        
C4        C        0.03125        0.814814        0.05113291907514451        0        
C4        C        0.09375        0.814814        0.05113291907514451        0        
C4        C        0.15625        0.814814        0.05113291907514451        0        
C4        C        0.21875        0.814814        0.05113291907514451        0        
C4        C        0.28125        0.814814        0.05113291907514451        0        
C4        C        0.34375        0.814814        0.05113291907514451        0        
C4        C        0.40625        0.814814        0.05113291907514451        0        
C4        C        0.46875        0.814814        0.05113291907514451        0        
C4        C        0.53125        0.814814        0.05113291907514451        0        
C4        C        0.59375        0.814814        0.05113291907514451        0        
C4        C        0.65625        0.814814        0.05113291907514451        0        
C4        C        0.71875        0.814814        0.05113291907514451        0        
C4        C        0.78125        0.814814        0.05113291907514451        0        
C4        C        0.84375        0.814814        0.05113291907514451        0        
C4        C        0.9062500000000001        0.814814        0.05113291907514451        0        
C4        C        0.9687500000000001        0.814814        0.05113291907514451        0        
C_FG        C        0.0        0.907408        0.05113291907514451        0.2        
C1        C        0.0625        0.907408        0.05113291907514451        0        
C1        C        0.125        0.907408        0.05113291907514451        0        
C_FG        C        0.1875        0.907408        0.05113291907514451        0.2        
C1        C        0.25        0.907408        0.05113291907514451        0        
C1        C        0.3125        0.907408        0.05113291907514451        0        
C_FG        C        0.375        0.907408        0.05113291907514451        0.2        
C1        C        0.4375        0.907408        0.05113291907514451        0        
C1        C        0.5        0.907408        0.05113291907514451        0        
C_FG        C        0.5625        0.907408        0.05113291907514451        0.2        
C1        C        0.625        0.907408        0.05113291907514451        0        
C1        C        0.6875        0.907408        0.05113291907514451        0        
C_FG        C        0.75        0.907408        0.05113291907514451        0.2        
C1        C        0.8125        0.907408        0.05113291907514451        0        
C1        C        0.875        0.907408        0.05113291907514451        0        
C_FG        C        0.9375        0.907408        0.05113291907514451        0.2        
C2        C        0.03125        0.962963        0.05113291907514451        0        
C2        C        0.09375        0.962963        0.05113291907514451        0        
C2        C        0.15625        0.962963        0.05113291907514451        0        
C2        C        0.21875        0.962963        0.05113291907514451        0        
C2        C        0.28125        0.962963        0.05113291907514451        0        
C2        C        0.34375        0.962963        0.05113291907514451        0        
C2        C        0.40625        0.962963        0.05113291907514451        0        
C2        C        0.46875        0.962963        0.05113291907514451        0        
C2        C        0.53125        0.962963        0.05113291907514451        0        
C2        C        0.59375        0.962963        0.05113291907514451        0        
C2        C        0.65625        0.962963        0.05113291907514451        0        
C2        C        0.71875        0.962963        0.05113291907514451        0        
C2        C        0.78125        0.962963        0.05113291907514451        0        
C2        C        0.84375        0.962963        0.05113291907514451        0        
C2        C        0.9062500000000001        0.962963        0.05113291907514451        0        
C2        C        0.9687500000000001        0.962963        0.05113291907514451        0        
C3        C        0.0        0.9814809999999999        0.05113291907514451        0        
C3        C        0.0625        0.9814809999999999        0.05113291907514451        0        
C3        C        0.125        0.9814809999999999        0.05113291907514451        0        
C3        C        0.1875        0.9814809999999999        0.05113291907514451        0        
C3        C        0.25        0.9814809999999999        0.05113291907514451        0        
C3        C        0.3125        0.9814809999999999        0.05113291907514451        0        
C3        C        0.375        0.9814809999999999        0.05113291907514451        0        
C3        C        0.4375        0.9814809999999999        0.05113291907514451        0        
C3        C        0.5        0.9814809999999999        0.05113291907514451        0        
C3        C        0.5625        0.9814809999999999        0.05113291907514451        0        
C3        C        0.625        0.9814809999999999        0.05113291907514451        0        
C3        C        0.6875        0.9814809999999999        0.05113291907514451        0        
C3        C        0.75        0.9814809999999999        0.05113291907514451        0        
C3        C        0.8125        0.9814809999999999        0.05113291907514451        0        
C3        C        0.875        0.9814809999999999        0.05113291907514451        0        
C3        C        0.9375        0.9814809999999999        0.05113291907514451        0        
C4        C        0.03125        0.925925        0.05113291907514451        0        
C4        C        0.09375        0.925925        0.05113291907514451        0        
C4        C        0.15625        0.925925        0.05113291907514451        0        
C4        C        0.21875        0.925925        0.05113291907514451        0        
C4        C        0.28125        0.925925        0.05113291907514451        0        
C4        C        0.34375        0.925925        0.05113291907514451        0        
C4        C        0.40625        0.925925        0.05113291907514451        0        
C4        C        0.46875        0.925925        0.05113291907514451        0        
C4        C        0.53125        0.925925        0.05113291907514451        0        
C4        C        0.59375        0.925925        0.05113291907514451        0        
C4        C        0.65625        0.925925        0.05113291907514451        0        
C4        C        0.71875        0.925925        0.05113291907514451        0        
C4        C        0.78125        0.925925        0.05113291907514451        0        
C4        C        0.84375        0.925925        0.05113291907514451        0        
C4        C        0.9062500000000001        0.925925        0.05113291907514451        0        
C4        C        0.9687500000000001        0.925925        0.05113291907514451        0        
C1        C        0.0        0.018519        0.14795391907514452        0        
C2        C        0.03125        0.074075        0.14795391907514452        0        
C3        C        0.0        0.092592        0.14795391907514452        0        
C4        C        0.03125        0.037037        0.14795391907514452        0        
C1        C        0.0        0.12963        0.14795391907514452        0        
C2        C        0.03125        0.185185        0.14795391907514452        0        
C3        C        0.0        0.203703        0.14795391907514452        0        
C4        C        0.03125        0.148148        0.14795391907514452        0        
C1        C        0.0        0.24074099999999998        0.14795391907514452        0        
C2        C        0.03125        0.296297        0.14795391907514452        0        
C3        C        0.0        0.314815        0.14795391907514452        0        
C4        C        0.03125        0.259259        0.14795391907514452        0        
C1        C        0.0        0.351852        0.14795391907514452        0        
C2        C        0.03125        0.407408        0.14795391907514452        0        
C3        C        0.0        0.42592500000000005        0.14795391907514452        0        
C4        C        0.03125        0.37037        0.14795391907514452        0        
C1        C        0.0        0.46296300000000007        0.14795391907514452        0        
C2        C        0.03125        0.518519        0.14795391907514452        0        
C3        C        0.0        0.537037        0.14795391907514452        0        
C4        C        0.03125        0.481481        0.14795391907514452        0        
C1        C        0.0        0.574075        0.14795391907514452        0        
C2        C        0.03125        0.62963        0.14795391907514452        0        
C3        C        0.0        0.648148        0.14795391907514452        0        
C4        C        0.03125        0.592592        0.14795391907514452        0        
C1        C        0.0625        0.018519        0.14795391907514452        0        
C2        C        0.09375        0.074075        0.14795391907514452        0        
C3        C        0.0625        0.092592        0.14795391907514452        0        
C4        C        0.09375        0.037037        0.14795391907514452        0        
C1        C        0.0625        0.12963        0.14795391907514452        0        
C2        C        0.09375        0.185185        0.14795391907514452        0        
C3        C        0.0625        0.203703        0.14795391907514452        0        
C4        C        0.09375        0.148148        0.14795391907514452        0        
C1        C        0.0625        0.24074099999999998        0.14795391907514452        0        
C2        C        0.09375        0.296297        0.14795391907514452        0        
C3        C        0.0625        0.314815        0.14795391907514452        0        
C4        C        0.09375        0.259259        0.14795391907514452        0        
C1        C        0.0625        0.351852        0.14795391907514452        0        
C2        C        0.09375        0.407408        0.14795391907514452        0        
C3        C        0.0625        0.42592500000000005        0.14795391907514452        0        
C4        C        0.09375        0.37037        0.14795391907514452        0        
C1        C        0.0625        0.46296300000000007        0.14795391907514452        0        
C2        C        0.09375        0.518519        0.14795391907514452        0        
C3        C        0.0625        0.537037        0.14795391907514452        0        
C4        C        0.09375        0.481481        0.14795391907514452        0        
C1        C        0.0625        0.574075        0.14795391907514452        0        
C2        C        0.09375        0.62963        0.14795391907514452        0        
C3        C        0.0625        0.648148        0.14795391907514452        0        
C4        C        0.09375        0.592592        0.14795391907514452        0        
C1        C        0.125        0.018519        0.14795391907514452        0        
C2        C        0.15625        0.074075        0.14795391907514452        0        
C3        C        0.125        0.092592        0.14795391907514452        0        
C4        C        0.15625        0.037037        0.14795391907514452        0        
C1        C        0.125        0.12963        0.14795391907514452        0        
C2        C        0.15625        0.185185        0.14795391907514452        0        
C3        C        0.125        0.203703        0.14795391907514452        0        
C4        C        0.15625        0.148148        0.14795391907514452        0        
C1        C        0.125        0.24074099999999998        0.14795391907514452        0        
C2        C        0.15625        0.296297        0.14795391907514452        0        
C3        C        0.125        0.314815        0.14795391907514452        0        
C4        C        0.15625        0.259259        0.14795391907514452        0        
C1        C        0.125        0.351852        0.14795391907514452        0        
C2        C        0.15625        0.407408        0.14795391907514452        0        
C3        C        0.125        0.42592500000000005        0.14795391907514452        0        
C4        C        0.15625        0.37037        0.14795391907514452        0        
C1        C        0.125        0.46296300000000007        0.14795391907514452        0        
C2        C        0.15625        0.518519        0.14795391907514452        0        
C3        C        0.125        0.537037        0.14795391907514452        0        
C4        C        0.15625        0.481481        0.14795391907514452        0        
C1        C        0.125        0.574075        0.14795391907514452        0        
C2        C        0.15625        0.62963        0.14795391907514452        0        
C3        C        0.125        0.648148        0.14795391907514452        0        
C4        C        0.15625        0.592592        0.14795391907514452        0        
C1        C        0.1875        0.018519        0.14795391907514452        0        
C2        C        0.21875        0.074075        0.14795391907514452        0        
C3        C        0.1875        0.092592        0.14795391907514452        0        
C4        C        0.21875        0.037037        0.14795391907514452        0        
C1        C        0.1875        0.12963        0.14795391907514452        0        
C2        C        0.21875        0.185185        0.14795391907514452        0        
C3        C        0.1875        0.203703        0.14795391907514452        0        
C4        C        0.21875        0.148148        0.14795391907514452        0        
C1        C        0.1875        0.24074099999999998        0.14795391907514452        0        
C2        C        0.21875        0.296297        0.14795391907514452        0        
C3        C        0.1875        0.314815        0.14795391907514452        0        
C4        C        0.21875        0.259259        0.14795391907514452        0        
C1        C        0.1875        0.351852        0.14795391907514452        0        
C2        C        0.21875        0.407408        0.14795391907514452        0        
C3        C        0.1875        0.42592500000000005        0.14795391907514452        0        
C4        C        0.21875        0.37037        0.14795391907514452        0        
C1        C        0.1875        0.46296300000000007        0.14795391907514452        0        
C2        C        0.21875        0.518519        0.14795391907514452        0        
C3        C        0.1875        0.537037        0.14795391907514452        0        
C4        C        0.21875        0.481481        0.14795391907514452        0        
C1        C        0.1875        0.574075        0.14795391907514452        0        
C2        C        0.21875        0.62963        0.14795391907514452        0        
C3        C        0.1875        0.648148        0.14795391907514452        0        
C4        C        0.21875        0.592592        0.14795391907514452        0        
C1        C        0.25        0.018519        0.14795391907514452        0        
C2        C        0.28125        0.074075        0.14795391907514452        0        
C3        C        0.25        0.092592        0.14795391907514452        0        
C4        C        0.28125        0.037037        0.14795391907514452        0        
C1        C        0.25        0.12963        0.14795391907514452        0        
C2        C        0.28125        0.185185        0.14795391907514452        0        
C3        C        0.25        0.203703        0.14795391907514452        0        
C4        C        0.28125        0.148148        0.14795391907514452        0        
C1        C        0.25        0.24074099999999998        0.14795391907514452        0        
C2        C        0.28125        0.296297        0.14795391907514452        0        
C3        C        0.25        0.314815        0.14795391907514452        0        
C4        C        0.28125        0.259259        0.14795391907514452        0        
C1        C        0.25        0.351852        0.14795391907514452        0        
C2        C        0.28125        0.407408        0.14795391907514452        0        
C3        C        0.25        0.42592500000000005        0.14795391907514452        0        
C4        C        0.28125        0.37037        0.14795391907514452        0        
C1        C        0.25        0.46296300000000007        0.14795391907514452        0        
C2        C        0.28125        0.518519        0.14795391907514452        0        
C3        C        0.25        0.537037        0.14795391907514452        0        
C4        C        0.28125        0.481481        0.14795391907514452        0        
C1        C        0.25        0.574075        0.14795391907514452        0        
C2        C        0.28125        0.62963        0.14795391907514452        0        
C3        C        0.25        0.648148        0.14795391907514452        0        
C4        C        0.28125        0.592592        0.14795391907514452        0        
C1        C        0.3125        0.018519        0.14795391907514452        0        
C2        C        0.34375        0.074075        0.14795391907514452        0        
C3        C        0.3125        0.092592        0.14795391907514452        0        
C4        C        0.34375        0.037037        0.14795391907514452        0        
C1        C        0.3125        0.12963        0.14795391907514452        0        
C2        C        0.34375        0.185185        0.14795391907514452        0        
C3        C        0.3125        0.203703        0.14795391907514452        0        
C4        C        0.34375        0.148148        0.14795391907514452        0        
C1        C        0.3125        0.24074099999999998        0.14795391907514452        0        
C2        C        0.34375        0.296297        0.14795391907514452        0        
C3        C        0.3125        0.314815        0.14795391907514452        0        
C4        C        0.34375        0.259259        0.14795391907514452        0        
C1        C        0.3125        0.351852        0.14795391907514452        0        
C2        C        0.34375        0.407408        0.14795391907514452        0        
C3        C        0.3125        0.42592500000000005        0.14795391907514452        0        
C4        C        0.34375        0.37037        0.14795391907514452        0        
C1        C        0.3125        0.46296300000000007        0.14795391907514452        0        
C2        C        0.34375        0.518519        0.14795391907514452        0        
C3        C        0.3125        0.537037        0.14795391907514452        0        
C4        C        0.34375        0.481481        0.14795391907514452        0        
C1        C        0.3125        0.574075        0.14795391907514452        0        
C2        C        0.34375        0.62963        0.14795391907514452        0        
C3        C        0.3125        0.648148        0.14795391907514452        0        
C4        C        0.34375        0.592592        0.14795391907514452        0        
C1        C        0.375        0.018519        0.14795391907514452        0        
C2        C        0.40625        0.074075        0.14795391907514452        0        
C3        C        0.375        0.092592        0.14795391907514452        0        
C4        C        0.40625        0.037037        0.14795391907514452        0        
C1        C        0.375        0.12963        0.14795391907514452        0        
C2        C        0.40625        0.185185        0.14795391907514452        0        
C3        C        0.375        0.203703        0.14795391907514452        0        
C4        C        0.40625        0.148148        0.14795391907514452        0        
C1        C        0.375        0.24074099999999998        0.14795391907514452        0        
C2        C        0.40625        0.296297        0.14795391907514452        0        
C3        C        0.375        0.314815        0.14795391907514452        0        
C4        C        0.40625        0.259259        0.14795391907514452        0        
C1        C        0.375        0.351852        0.14795391907514452        0        
C2        C        0.40625        0.407408        0.14795391907514452        0        
C3        C        0.375        0.42592500000000005        0.14795391907514452        0        
C4        C        0.40625        0.37037        0.14795391907514452        0        
C1        C        0.375        0.46296300000000007        0.14795391907514452        0        
C2        C        0.40625        0.518519        0.14795391907514452        0        
C3        C        0.375        0.537037        0.14795391907514452        0        
C4        C        0.40625        0.481481        0.14795391907514452        0        
C1        C        0.375        0.574075        0.14795391907514452        0        
C2        C        0.40625        0.62963        0.14795391907514452        0        
C3        C        0.375        0.648148        0.14795391907514452        0        
C4        C        0.40625        0.592592        0.14795391907514452        0        
C1        C        0.4375        0.018519        0.14795391907514452        0        
C2        C        0.46875        0.074075        0.14795391907514452        0        
C3        C        0.4375        0.092592        0.14795391907514452        0        
C4        C        0.46875        0.037037        0.14795391907514452        0        
C1        C        0.4375        0.12963        0.14795391907514452        0        
C2        C        0.46875        0.185185        0.14795391907514452        0        
C3        C        0.4375        0.203703        0.14795391907514452        0        
C4        C        0.46875        0.148148        0.14795391907514452        0        
C1        C        0.4375        0.24074099999999998        0.14795391907514452        0        
C2        C        0.46875        0.296297        0.14795391907514452        0        
C3        C        0.4375        0.314815        0.14795391907514452        0        
C4        C        0.46875        0.259259        0.14795391907514452        0        
C1        C        0.4375        0.351852        0.14795391907514452        0        
C2        C        0.46875        0.407408        0.14795391907514452        0        
C3        C        0.4375        0.42592500000000005        0.14795391907514452        0        
C4        C        0.46875        0.37037        0.14795391907514452        0        
C1        C        0.4375        0.46296300000000007        0.14795391907514452        0        
C2        C        0.46875        0.518519        0.14795391907514452        0        
C3        C        0.4375        0.537037        0.14795391907514452        0        
C4        C        0.46875        0.481481        0.14795391907514452        0        
C1        C        0.4375        0.574075        0.14795391907514452        0        
C2        C        0.46875        0.62963        0.14795391907514452        0        
C3        C        0.4375        0.648148        0.14795391907514452        0        
C4        C        0.46875        0.592592        0.14795391907514452        0        
C1        C        0.5        0.018519        0.14795391907514452        0        
C2        C        0.53125        0.074075        0.14795391907514452        0        
C3        C        0.5        0.092592        0.14795391907514452        0        
C4        C        0.53125        0.037037        0.14795391907514452        0        
C1        C        0.5        0.12963        0.14795391907514452        0        
C2        C        0.53125        0.185185        0.14795391907514452        0        
C3        C        0.5        0.203703        0.14795391907514452        0        
C4        C        0.53125        0.148148        0.14795391907514452        0        
C1        C        0.5        0.24074099999999998        0.14795391907514452        0        
C2        C        0.53125        0.296297        0.14795391907514452        0        
C3        C        0.5        0.314815        0.14795391907514452        0        
C4        C        0.53125        0.259259        0.14795391907514452        0        
C1        C        0.5        0.351852        0.14795391907514452        0        
C2        C        0.53125        0.407408        0.14795391907514452        0        
C3        C        0.5        0.42592500000000005        0.14795391907514452        0        
C4        C        0.53125        0.37037        0.14795391907514452        0        
C1        C        0.5        0.46296300000000007        0.14795391907514452        0        
C2        C        0.53125        0.518519        0.14795391907514452        0        
C3        C        0.5        0.537037        0.14795391907514452        0        
C4        C        0.53125        0.481481        0.14795391907514452        0        
C1        C        0.5        0.574075        0.14795391907514452        0        
C2        C        0.53125        0.62963        0.14795391907514452        0        
C3        C        0.5        0.648148        0.14795391907514452        0        
C4        C        0.53125        0.592592        0.14795391907514452        0        
C1        C        0.5625        0.018519        0.14795391907514452        0        
C2        C        0.59375        0.074075        0.14795391907514452        0        
C3        C        0.5625        0.092592        0.14795391907514452        0        
C4        C        0.59375        0.037037        0.14795391907514452        0        
C1        C        0.5625        0.12963        0.14795391907514452        0        
C2        C        0.59375        0.185185        0.14795391907514452        0        
C3        C        0.5625        0.203703        0.14795391907514452        0        
C4        C        0.59375        0.148148        0.14795391907514452        0        
C1        C        0.5625        0.24074099999999998        0.14795391907514452        0        
C2        C        0.59375        0.296297        0.14795391907514452        0        
C3        C        0.5625        0.314815        0.14795391907514452        0        
C4        C        0.59375        0.259259        0.14795391907514452        0        
C1        C        0.5625        0.351852        0.14795391907514452        0        
C2        C        0.59375        0.407408        0.14795391907514452        0        
C3        C        0.5625        0.42592500000000005        0.14795391907514452        0        
C4        C        0.59375        0.37037        0.14795391907514452        0        
C1        C        0.5625        0.46296300000000007        0.14795391907514452        0        
C2        C        0.59375        0.518519        0.14795391907514452        0        
C3        C        0.5625        0.537037        0.14795391907514452        0        
C4        C        0.59375        0.481481        0.14795391907514452        0        
C1        C        0.5625        0.574075        0.14795391907514452        0        
C2        C        0.59375        0.62963        0.14795391907514452        0        
C3        C        0.5625        0.648148        0.14795391907514452        0        
C4        C        0.59375        0.592592        0.14795391907514452        0        
C1        C        0.625        0.018519        0.14795391907514452        0        
C2        C        0.65625        0.074075        0.14795391907514452        0        
C3        C        0.625        0.092592        0.14795391907514452        0        
C4        C        0.65625        0.037037        0.14795391907514452        0        
C1        C        0.625        0.12963        0.14795391907514452        0        
C2        C        0.65625        0.185185        0.14795391907514452        0        
C3        C        0.625        0.203703        0.14795391907514452        0        
C4        C        0.65625        0.148148        0.14795391907514452        0        
C1        C        0.625        0.24074099999999998        0.14795391907514452        0        
C2        C        0.65625        0.296297        0.14795391907514452        0        
C3        C        0.625        0.314815        0.14795391907514452        0        
C4        C        0.65625        0.259259        0.14795391907514452        0        
C1        C        0.625        0.351852        0.14795391907514452        0        
C2        C        0.65625        0.407408        0.14795391907514452        0        
C3        C        0.625        0.42592500000000005        0.14795391907514452        0        
C4        C        0.65625        0.37037        0.14795391907514452        0        
C1        C        0.625        0.46296300000000007        0.14795391907514452        0        
C2        C        0.65625        0.518519        0.14795391907514452        0        
C3        C        0.625        0.537037        0.14795391907514452        0        
C4        C        0.65625        0.481481        0.14795391907514452        0        
C1        C        0.625        0.574075        0.14795391907514452        0        
C2        C        0.65625        0.62963        0.14795391907514452        0        
C3        C        0.625        0.648148        0.14795391907514452        0        
C4        C        0.65625        0.592592        0.14795391907514452        0        
C1        C        0.6875        0.018519        0.14795391907514452        0        
C2        C        0.71875        0.074075        0.14795391907514452        0        
C3        C        0.6875        0.092592        0.14795391907514452        0        
C4        C        0.71875        0.037037        0.14795391907514452        0        
C1        C        0.6875        0.12963        0.14795391907514452        0        
C2        C        0.71875        0.185185        0.14795391907514452        0        
C3        C        0.6875        0.203703        0.14795391907514452        0        
C4        C        0.71875        0.148148        0.14795391907514452        0        
C1        C        0.6875        0.24074099999999998        0.14795391907514452        0        
C2        C        0.71875        0.296297        0.14795391907514452        0        
C3        C        0.6875        0.314815        0.14795391907514452        0        
C4        C        0.71875        0.259259        0.14795391907514452        0        
C1        C        0.6875        0.351852        0.14795391907514452        0        
C2        C        0.71875        0.407408        0.14795391907514452        0        
C3        C        0.6875        0.42592500000000005        0.14795391907514452        0        
C4        C        0.71875        0.37037        0.14795391907514452        0        
C1        C        0.6875        0.46296300000000007        0.14795391907514452        0        
C2        C        0.71875        0.518519        0.14795391907514452        0        
C3        C        0.6875        0.537037        0.14795391907514452        0        
C4        C        0.71875        0.481481        0.14795391907514452        0        
C1        C        0.6875        0.574075        0.14795391907514452        0        
C2        C        0.71875        0.62963        0.14795391907514452        0        
C3        C        0.6875        0.648148        0.14795391907514452        0        
C4        C        0.71875        0.592592        0.14795391907514452        0        
C1        C        0.75        0.018519        0.14795391907514452        0        
C2        C        0.78125        0.074075        0.14795391907514452        0        
C3        C        0.75        0.092592        0.14795391907514452        0        
C4        C        0.78125        0.037037        0.14795391907514452        0        
C1        C        0.75        0.12963        0.14795391907514452        0        
C2        C        0.78125        0.185185        0.14795391907514452        0        
C3        C        0.75        0.203703        0.14795391907514452        0        
C4        C        0.78125        0.148148        0.14795391907514452        0        
C1        C        0.75        0.24074099999999998        0.14795391907514452        0        
C2        C        0.78125        0.296297        0.14795391907514452        0        
C3        C        0.75        0.314815        0.14795391907514452        0        
C4        C        0.78125        0.259259        0.14795391907514452        0        
C1        C        0.75        0.351852        0.14795391907514452        0        
C2        C        0.78125        0.407408        0.14795391907514452        0        
C3        C        0.75        0.42592500000000005        0.14795391907514452        0        
C4        C        0.78125        0.37037        0.14795391907514452        0        
C1        C        0.75        0.46296300000000007        0.14795391907514452        0        
C2        C        0.78125        0.518519        0.14795391907514452        0        
C3        C        0.75        0.537037        0.14795391907514452        0        
C4        C        0.78125        0.481481        0.14795391907514452        0        
C1        C        0.75        0.574075        0.14795391907514452        0        
C2        C        0.78125        0.62963        0.14795391907514452        0        
C3        C        0.75        0.648148        0.14795391907514452        0        
C4        C        0.78125        0.592592        0.14795391907514452        0        
C1        C        0.8125        0.018519        0.14795391907514452        0        
C2        C        0.84375        0.074075        0.14795391907514452        0        
C3        C        0.8125        0.092592        0.14795391907514452        0        
C4        C        0.84375        0.037037        0.14795391907514452        0        
C1        C        0.8125        0.12963        0.14795391907514452        0        
C2        C        0.84375        0.185185        0.14795391907514452        0        
C3        C        0.8125        0.203703        0.14795391907514452        0        
C4        C        0.84375        0.148148        0.14795391907514452        0        
C1        C        0.8125        0.24074099999999998        0.14795391907514452        0        
C2        C        0.84375        0.296297        0.14795391907514452        0        
C3        C        0.8125        0.314815        0.14795391907514452        0        
C4        C        0.84375        0.259259        0.14795391907514452        0        
C1        C        0.8125        0.351852        0.14795391907514452        0        
C2        C        0.84375        0.407408        0.14795391907514452        0        
C3        C        0.8125        0.42592500000000005        0.14795391907514452        0        
C4        C        0.84375        0.37037        0.14795391907514452        0        
C1        C        0.8125        0.46296300000000007        0.14795391907514452        0        
C2        C        0.84375        0.518519        0.14795391907514452        0        
C3        C        0.8125        0.537037        0.14795391907514452        0        
C4        C        0.84375        0.481481        0.14795391907514452        0        
C1        C        0.8125        0.574075        0.14795391907514452        0        
C2        C        0.84375        0.62963        0.14795391907514452        0        
C3        C        0.8125        0.648148        0.14795391907514452        0        
C4        C        0.84375        0.592592        0.14795391907514452        0        
C1        C        0.875        0.018519        0.14795391907514452        0        
C2        C        0.9062500000000001        0.074075        0.14795391907514452        0        
C3        C        0.875        0.092592        0.14795391907514452        0        
C4        C        0.9062500000000001        0.037037        0.14795391907514452        0        
C1        C        0.875        0.12963        0.14795391907514452        0        
C2        C        0.9062500000000001        0.185185        0.14795391907514452        0        
C3        C        0.875        0.203703        0.14795391907514452        0        
C4        C        0.9062500000000001        0.148148        0.14795391907514452        0        
C1        C        0.875        0.24074099999999998        0.14795391907514452        0        
C2        C        0.9062500000000001        0.296297        0.14795391907514452        0        
C3        C        0.875        0.314815        0.14795391907514452        0        
C4        C        0.9062500000000001        0.259259        0.14795391907514452        0        
C1        C        0.875        0.351852        0.14795391907514452        0        
C2        C        0.9062500000000001        0.407408        0.14795391907514452        0        
C3        C        0.875        0.42592500000000005        0.14795391907514452        0        
C4        C        0.9062500000000001        0.37037        0.14795391907514452        0        
C1        C        0.875        0.46296300000000007        0.14795391907514452        0        
C2        C        0.9062500000000001        0.518519        0.14795391907514452        0        
C3        C        0.875        0.537037        0.14795391907514452        0        
C4        C        0.9062500000000001        0.481481        0.14795391907514452        0        
C1        C        0.875        0.574075        0.14795391907514452        0        
C2        C        0.9062500000000001        0.62963        0.14795391907514452        0        
C3        C        0.875        0.648148        0.14795391907514452        0        
C4        C        0.9062500000000001        0.592592        0.14795391907514452        0        
C1        C        0.9375        0.018519        0.14795391907514452        0        
C2        C        0.9687500000000001        0.074075        0.14795391907514452        0        
C3        C        0.9375        0.092592        0.14795391907514452        0        
C4        C        0.9687500000000001        0.037037        0.14795391907514452        0        
C1        C        0.9375        0.12963        0.14795391907514452        0        
C2        C        0.9687500000000001        0.185185        0.14795391907514452        0        
C3        C        0.9375        0.203703        0.14795391907514452        0        
C4        C        0.9687500000000001        0.148148        0.14795391907514452        0        
C1        C        0.9375        0.24074099999999998        0.14795391907514452        0        
C2        C        0.9687500000000001        0.296297        0.14795391907514452        0        
C3        C        0.9375        0.314815        0.14795391907514452        0        
C4        C        0.9687500000000001        0.259259        0.14795391907514452        0        
C1        C        0.9375        0.351852        0.14795391907514452        0        
C2        C        0.9687500000000001        0.407408        0.14795391907514452        0        
C3        C        0.9375        0.42592500000000005        0.14795391907514452        0        
C4        C        0.9687500000000001        0.37037        0.14795391907514452        0        
C1        C        0.9375        0.46296300000000007        0.14795391907514452        0        
C2        C        0.9687500000000001        0.518519        0.14795391907514452        0        
C3        C        0.9375        0.537037        0.14795391907514452        0        
C4        C        0.9687500000000001        0.481481        0.14795391907514452        0        
C1        C        0.9375        0.574075        0.14795391907514452        0        
C2        C        0.9687500000000001        0.62963        0.14795391907514452        0        
C3        C        0.9375        0.648148        0.14795391907514452        0        
C4        C        0.9687500000000001        0.592592        0.14795391907514452        0        
C1        C        0.0        0.685186        0.14795391907514452        0        
C1        C        0.0625        0.685186        0.14795391907514452        0        
C1        C        0.125        0.685186        0.14795391907514452        0        
C1        C        0.1875        0.685186        0.14795391907514452        0        
C1        C        0.25        0.685186        0.14795391907514452        0        
C1        C        0.3125        0.685186        0.14795391907514452        0        
C1        C        0.375        0.685186        0.14795391907514452        0        
C1        C        0.4375        0.685186        0.14795391907514452        0        
C1        C        0.5        0.685186        0.14795391907514452        0        
C1        C        0.5625        0.685186        0.14795391907514452        0        
C1        C        0.625        0.685186        0.14795391907514452        0        
C1        C        0.6875        0.685186        0.14795391907514452        0        
C1        C        0.75        0.685186        0.14795391907514452        0        
C1        C        0.8125        0.685186        0.14795391907514452        0        
C1        C        0.875        0.685186        0.14795391907514452        0        
C1        C        0.9375        0.685186        0.14795391907514452        0        
C2        C        0.03125        0.740741        0.14795391907514452        0        
C2        C        0.09375        0.740741        0.14795391907514452        0        
C2        C        0.15625        0.740741        0.14795391907514452        0        
C2        C        0.21875        0.740741        0.14795391907514452        0        
C2        C        0.28125        0.740741        0.14795391907514452        0        
C2        C        0.34375        0.740741        0.14795391907514452        0        
C2        C        0.40625        0.740741        0.14795391907514452        0        
C2        C        0.46875        0.740741        0.14795391907514452        0        
C2        C        0.53125        0.740741        0.14795391907514452        0        
C2        C        0.59375        0.740741        0.14795391907514452        0        
C2        C        0.65625        0.740741        0.14795391907514452        0        
C2        C        0.71875        0.740741        0.14795391907514452        0        
C2        C        0.78125        0.740741        0.14795391907514452        0        
C2        C        0.84375        0.740741        0.14795391907514452        0        
C2        C        0.9062500000000001        0.740741        0.14795391907514452        0        
C2        C        0.9687500000000001        0.740741        0.14795391907514452        0        
C3        C        0.0        0.759259        0.14795391907514452        0        
C3        C        0.0625        0.759259        0.14795391907514452        0        
C3        C        0.125        0.759259        0.14795391907514452        0        
C3        C        0.1875        0.759259        0.14795391907514452        0        
C3        C        0.25        0.759259        0.14795391907514452        0        
C3        C        0.3125        0.759259        0.14795391907514452        0        
C3        C        0.375        0.759259        0.14795391907514452        0        
C3        C        0.4375        0.759259        0.14795391907514452        0        
C3        C        0.5        0.759259        0.14795391907514452        0        
C3        C        0.5625        0.759259        0.14795391907514452        0        
C3        C        0.625        0.759259        0.14795391907514452        0        
C3        C        0.6875        0.759259        0.14795391907514452        0        
C3        C        0.75        0.759259        0.14795391907514452        0        
C3        C        0.8125        0.759259        0.14795391907514452        0        
C3        C        0.875        0.759259        0.14795391907514452        0        
C3        C        0.9375        0.759259        0.14795391907514452        0        
C4        C        0.03125        0.703703        0.14795391907514452        0        
C4        C        0.09375        0.703703        0.14795391907514452        0        
C4        C        0.15625        0.703703        0.14795391907514452        0        
C4        C        0.21875        0.703703        0.14795391907514452        0        
C4        C        0.28125        0.703703        0.14795391907514452        0        
C4        C        0.34375        0.703703        0.14795391907514452        0        
C4        C        0.40625        0.703703        0.14795391907514452        0        
C4        C        0.46875        0.703703        0.14795391907514452        0        
C4        C        0.53125        0.703703        0.14795391907514452        0        
C4        C        0.59375        0.703703        0.14795391907514452        0        
C4        C        0.65625        0.703703        0.14795391907514452        0        
C4        C        0.71875        0.703703        0.14795391907514452        0        
C4        C        0.78125        0.703703        0.14795391907514452        0        
C4        C        0.84375        0.703703        0.14795391907514452        0        
C4        C        0.9062500000000001        0.703703        0.14795391907514452        0        
C4        C        0.9687500000000001        0.703703        0.14795391907514452        0        
C1        C        0.0        0.796297        0.14795391907514452        0        
C1        C        0.0625        0.796297        0.14795391907514452        0        
C1        C        0.125        0.796297        0.14795391907514452        0        
C1        C        0.1875        0.796297        0.14795391907514452        0        
C1        C        0.25        0.796297        0.14795391907514452        0        
C1        C        0.3125        0.796297        0.14795391907514452        0        
C1        C        0.375        0.796297        0.14795391907514452        0        
C1        C        0.4375        0.796297        0.14795391907514452        0        
C1        C        0.5        0.796297        0.14795391907514452        0        
C1        C        0.5625        0.796297        0.14795391907514452        0        
C1        C        0.625        0.796297        0.14795391907514452        0        
C1        C        0.6875        0.796297        0.14795391907514452        0        
C1        C        0.75        0.796297        0.14795391907514452        0        
C1        C        0.8125        0.796297        0.14795391907514452        0        
C1        C        0.875        0.796297        0.14795391907514452        0        
C1        C        0.9375        0.796297        0.14795391907514452        0        
C2        C        0.03125        0.851852        0.14795391907514452        0        
C2        C        0.09375        0.851852        0.14795391907514452        0        
C2        C        0.15625        0.851852        0.14795391907514452        0        
C2        C        0.21875        0.851852        0.14795391907514452        0        
C2        C        0.28125        0.851852        0.14795391907514452        0        
C2        C        0.34375        0.851852        0.14795391907514452        0        
C2        C        0.40625        0.851852        0.14795391907514452        0        
C2        C        0.46875        0.851852        0.14795391907514452        0        
C2        C        0.53125        0.851852        0.14795391907514452        0        
C2        C        0.59375        0.851852        0.14795391907514452        0        
C2        C        0.65625        0.851852        0.14795391907514452        0        
C2        C        0.71875        0.851852        0.14795391907514452        0        
C2        C        0.78125        0.851852        0.14795391907514452        0        
C2        C        0.84375        0.851852        0.14795391907514452        0        
C2        C        0.9062500000000001        0.851852        0.14795391907514452        0        
C2        C        0.9687500000000001        0.851852        0.14795391907514452        0        
C3        C        0.0        0.87037        0.14795391907514452        0        
C3        C        0.0625        0.87037        0.14795391907514452        0        
C3        C        0.125        0.87037        0.14795391907514452        0        
C3        C        0.1875        0.87037        0.14795391907514452        0        
C3        C        0.25        0.87037        0.14795391907514452        0        
C3        C        0.3125        0.87037        0.14795391907514452        0        
C3        C        0.375        0.87037        0.14795391907514452        0        
C3        C        0.4375        0.87037        0.14795391907514452        0        
C3        C        0.5        0.87037        0.14795391907514452        0        
C3        C        0.5625        0.87037        0.14795391907514452        0        
C3        C        0.625        0.87037        0.14795391907514452        0        
C3        C        0.6875        0.87037        0.14795391907514452        0        
C3        C        0.75        0.87037        0.14795391907514452        0        
C3        C        0.8125        0.87037        0.14795391907514452        0        
C3        C        0.875        0.87037        0.14795391907514452        0        
C3        C        0.9375        0.87037        0.14795391907514452        0        
C4        C        0.03125        0.814814        0.14795391907514452        0        
C4        C        0.09375        0.814814        0.14795391907514452        0        
C4        C        0.15625        0.814814        0.14795391907514452        0        
C4        C        0.21875        0.814814        0.14795391907514452        0        
C4        C        0.28125        0.814814        0.14795391907514452        0        
C4        C        0.34375        0.814814        0.14795391907514452        0        
C4        C        0.40625        0.814814        0.14795391907514452        0        
C4        C        0.46875        0.814814        0.14795391907514452        0        
C4        C        0.53125        0.814814        0.14795391907514452        0        
C4        C        0.59375        0.814814        0.14795391907514452        0        
C4        C        0.65625        0.814814        0.14795391907514452        0        
C4        C        0.71875        0.814814        0.14795391907514452        0        
C4        C        0.78125        0.814814        0.14795391907514452        0        
C4        C        0.84375        0.814814        0.14795391907514452        0        
C4        C        0.9062500000000001        0.814814        0.14795391907514452        0        
C4        C        0.9687500000000001        0.814814        0.14795391907514452        0        
C1        C        0.0        0.907408        0.14795391907514452        0        
C1        C        0.0625        0.907408        0.14795391907514452        0        
C1        C        0.125        0.907408        0.14795391907514452        0        
C1        C        0.1875        0.907408        0.14795391907514452        0        
C1        C        0.25        0.907408        0.14795391907514452        0        
C1        C        0.3125        0.907408        0.14795391907514452        0        
C1        C        0.375        0.907408        0.14795391907514452        0        
C1        C        0.4375        0.907408        0.14795391907514452        0        
C1        C        0.5        0.907408        0.14795391907514452        0        
C1        C        0.5625        0.907408        0.14795391907514452        0        
C1        C        0.625        0.907408        0.14795391907514452        0        
C1        C        0.6875        0.907408        0.14795391907514452        0        
C1        C        0.75        0.907408        0.14795391907514452        0        
C1        C        0.8125        0.907408        0.14795391907514452        0        
C1        C        0.875        0.907408        0.14795391907514452        0        
C1        C        0.9375        0.907408        0.14795391907514452        0        
C2        C        0.03125        0.962963        0.14795391907514452        0        
C2        C        0.09375        0.962963        0.14795391907514452        0        
C2        C        0.15625        0.962963        0.14795391907514452        0        
C2        C        0.21875        0.962963        0.14795391907514452        0        
C2        C        0.28125        0.962963        0.14795391907514452        0        
C2        C        0.34375        0.962963        0.14795391907514452        0        
C2        C        0.40625        0.962963        0.14795391907514452        0        
C2        C        0.46875        0.962963        0.14795391907514452        0        
C2        C        0.53125        0.962963        0.14795391907514452        0        
C2        C        0.59375        0.962963        0.14795391907514452        0        
C2        C        0.65625        0.962963        0.14795391907514452        0        
C2        C        0.71875        0.962963        0.14795391907514452        0        
C2        C        0.78125        0.962963        0.14795391907514452        0        
C2        C        0.84375        0.962963        0.14795391907514452        0        
C2        C        0.9062500000000001        0.962963        0.14795391907514452        0        
C2        C        0.9687500000000001        0.962963        0.14795391907514452        0        
C3        C        0.0        0.9814809999999999        0.14795391907514452        0        
C3        C        0.0625        0.9814809999999999        0.14795391907514452        0        
C3        C        0.125        0.9814809999999999        0.14795391907514452        0        
C3        C        0.1875        0.9814809999999999        0.14795391907514452        0        
C3        C        0.25        0.9814809999999999        0.14795391907514452        0        
C3        C        0.3125        0.9814809999999999        0.14795391907514452        0        
C3        C        0.375        0.9814809999999999        0.14795391907514452        0        
C3        C        0.4375        0.9814809999999999        0.14795391907514452        0        
C3        C        0.5        0.9814809999999999        0.14795391907514452        0        
C3        C        0.5625        0.9814809999999999        0.14795391907514452        0        
C3        C        0.625        0.9814809999999999        0.14795391907514452        0        
C3        C        0.6875        0.9814809999999999        0.14795391907514452        0        
C3        C        0.75        0.9814809999999999        0.14795391907514452        0        
C3        C        0.8125        0.9814809999999999        0.14795391907514452        0        
C3        C        0.875        0.9814809999999999        0.14795391907514452        0        
C3        C        0.9375        0.9814809999999999        0.14795391907514452        0        
C4        C        0.03125        0.925925        0.14795391907514452        0        
C4        C        0.09375        0.925925        0.14795391907514452        0        
C4        C        0.15625        0.925925        0.14795391907514452        0        
C4        C        0.21875        0.925925        0.14795391907514452        0        
C4        C        0.28125        0.925925        0.14795391907514452        0        
C4        C        0.34375        0.925925        0.14795391907514452        0        
C4        C        0.40625        0.925925        0.14795391907514452        0        
C4        C        0.46875        0.925925        0.14795391907514452        0        
C4        C        0.53125        0.925925        0.14795391907514452        0        
C4        C        0.59375        0.925925        0.14795391907514452        0        
C4        C        0.65625        0.925925        0.14795391907514452        0        
C4        C        0.71875        0.925925        0.14795391907514452        0        
C4        C        0.78125        0.925925        0.14795391907514452        0        
C4        C        0.84375        0.925925        0.14795391907514452        0        
C4        C        0.9062500000000001        0.925925        0.14795391907514452        0        
C4        C        0.9687500000000001        0.925925        0.14795391907514452        0        
C_FG        C        0.0        0.018519        0.24477491907514454        0.2        
C2        C        0.03125        0.074075        0.24477491907514454        0        
C3        C        0.0        0.092592        0.24477491907514454        0        
C4        C        0.03125        0.037037        0.24477491907514454        0        
C1        C        0.0        0.12963        0.24477491907514454        0        
C2        C        0.03125        0.185185        0.24477491907514454        0        
C3        C        0.0        0.203703        0.24477491907514454        0        
C4        C        0.03125        0.148148        0.24477491907514454        0        
C_FG        C        0.0        0.24074099999999998        0.24477491907514454        0.2        
C2        C        0.03125        0.296297        0.24477491907514454        0        
C3        C        0.0        0.314815        0.24477491907514454        0        
C4        C        0.03125        0.259259        0.24477491907514454        0        
C1        C        0.0        0.351852        0.24477491907514454        0        
C2        C        0.03125        0.407408        0.24477491907514454        0        
C3        C        0.0        0.42592500000000005        0.24477491907514454        0        
C4        C        0.03125        0.37037        0.24477491907514454        0        
C_FG        C        0.0        0.46296300000000007        0.24477491907514454        0.2        
C2        C        0.03125        0.518519        0.24477491907514454        0        
C3        C        0.0        0.537037        0.24477491907514454        0        
C4        C        0.03125        0.481481        0.24477491907514454        0        
C1        C        0.0        0.574075        0.24477491907514454        0        
C2        C        0.03125        0.62963        0.24477491907514454        0        
C3        C        0.0        0.648148        0.24477491907514454        0        
C4        C        0.03125        0.592592        0.24477491907514454        0        
C1        C        0.0625        0.018519        0.24477491907514454        0        
C2        C        0.09375        0.074075        0.24477491907514454        0        
C3        C        0.0625        0.092592        0.24477491907514454        0        
C4        C        0.09375        0.037037        0.24477491907514454        0        
C1        C        0.0625        0.12963        0.24477491907514454        0        
C2        C        0.09375        0.185185        0.24477491907514454        0        
C3        C        0.0625        0.203703        0.24477491907514454        0        
C4        C        0.09375        0.148148        0.24477491907514454        0        
C1        C        0.0625        0.24074099999999998        0.24477491907514454        0        
C2        C        0.09375        0.296297        0.24477491907514454        0        
C3        C        0.0625        0.314815        0.24477491907514454        0        
C4        C        0.09375        0.259259        0.24477491907514454        0        
C1        C        0.0625        0.351852        0.24477491907514454        0        
C2        C        0.09375        0.407408        0.24477491907514454        0        
C3        C        0.0625        0.42592500000000005        0.24477491907514454        0        
C4        C        0.09375        0.37037        0.24477491907514454        0        
C1        C        0.0625        0.46296300000000007        0.24477491907514454        0        
C2        C        0.09375        0.518519        0.24477491907514454        0        
C3        C        0.0625        0.537037        0.24477491907514454        0        
C4        C        0.09375        0.481481        0.24477491907514454        0        
C1        C        0.0625        0.574075        0.24477491907514454        0        
C2        C        0.09375        0.62963        0.24477491907514454        0        
C3        C        0.0625        0.648148        0.24477491907514454        0        
C4        C        0.09375        0.592592        0.24477491907514454        0        
C1        C        0.125        0.018519        0.24477491907514454        0        
C2        C        0.15625        0.074075        0.24477491907514454        0        
C3        C        0.125        0.092592        0.24477491907514454        0        
C4        C        0.15625        0.037037        0.24477491907514454        0        
C1        C        0.125        0.12963        0.24477491907514454        0        
C2        C        0.15625        0.185185        0.24477491907514454        0        
C3        C        0.125        0.203703        0.24477491907514454        0        
C4        C        0.15625        0.148148        0.24477491907514454        0        
C1        C        0.125        0.24074099999999998        0.24477491907514454        0        
C2        C        0.15625        0.296297        0.24477491907514454        0        
C3        C        0.125        0.314815        0.24477491907514454        0        
C4        C        0.15625        0.259259        0.24477491907514454        0        
C1        C        0.125        0.351852        0.24477491907514454        0        
C2        C        0.15625        0.407408        0.24477491907514454        0        
C3        C        0.125        0.42592500000000005        0.24477491907514454        0        
C4        C        0.15625        0.37037        0.24477491907514454        0        
C1        C        0.125        0.46296300000000007        0.24477491907514454        0        
C2        C        0.15625        0.518519        0.24477491907514454        0        
C3        C        0.125        0.537037        0.24477491907514454        0        
C4        C        0.15625        0.481481        0.24477491907514454        0        
C1        C        0.125        0.574075        0.24477491907514454        0        
C2        C        0.15625        0.62963        0.24477491907514454        0        
C3        C        0.125        0.648148        0.24477491907514454        0        
C4        C        0.15625        0.592592        0.24477491907514454        0        
C_FG        C        0.1875        0.018519        0.24477491907514454        0.2        
C2        C        0.21875        0.074075        0.24477491907514454        0        
C3        C        0.1875        0.092592        0.24477491907514454        0        
C4        C        0.21875        0.037037        0.24477491907514454        0        
C1        C        0.1875        0.12963        0.24477491907514454        0        
C2        C        0.21875        0.185185        0.24477491907514454        0        
C3        C        0.1875        0.203703        0.24477491907514454        0        
C4        C        0.21875        0.148148        0.24477491907514454        0        
C_FG        C        0.1875        0.24074099999999998        0.24477491907514454        0.2        
C2        C        0.21875        0.296297        0.24477491907514454        0        
C3        C        0.1875        0.314815        0.24477491907514454        0        
C4        C        0.21875        0.259259        0.24477491907514454        0        
C1        C        0.1875        0.351852        0.24477491907514454        0        
C2        C        0.21875        0.407408        0.24477491907514454        0        
C3        C        0.1875        0.42592500000000005        0.24477491907514454        0        
C4        C        0.21875        0.37037        0.24477491907514454        0        
C_FG        C        0.1875        0.46296300000000007        0.24477491907514454        0.2        
C2        C        0.21875        0.518519        0.24477491907514454        0        
C3        C        0.1875        0.537037        0.24477491907514454        0        
C4        C        0.21875        0.481481        0.24477491907514454        0        
C1        C        0.1875        0.574075        0.24477491907514454        0        
C2        C        0.21875        0.62963        0.24477491907514454        0        
C3        C        0.1875        0.648148        0.24477491907514454        0        
C4        C        0.21875        0.592592        0.24477491907514454        0        
C1        C        0.25        0.018519        0.24477491907514454        0        
C2        C        0.28125        0.074075        0.24477491907514454        0        
C3        C        0.25        0.092592        0.24477491907514454        0        
C4        C        0.28125        0.037037        0.24477491907514454        0        
C1        C        0.25        0.12963        0.24477491907514454        0        
C2        C        0.28125        0.185185        0.24477491907514454        0        
C3        C        0.25        0.203703        0.24477491907514454        0        
C4        C        0.28125        0.148148        0.24477491907514454        0        
C1        C        0.25        0.24074099999999998        0.24477491907514454        0        
C2        C        0.28125        0.296297        0.24477491907514454        0        
C3        C        0.25        0.314815        0.24477491907514454        0        
C4        C        0.28125        0.259259        0.24477491907514454        0        
C1        C        0.25        0.351852        0.24477491907514454        0        
C2        C        0.28125        0.407408        0.24477491907514454        0        
C3        C        0.25        0.42592500000000005        0.24477491907514454        0        
C4        C        0.28125        0.37037        0.24477491907514454        0        
C1        C        0.25        0.46296300000000007        0.24477491907514454        0        
C2        C        0.28125        0.518519        0.24477491907514454        0        
C3        C        0.25        0.537037        0.24477491907514454        0        
C4        C        0.28125        0.481481        0.24477491907514454        0        
C1        C        0.25        0.574075        0.24477491907514454        0        
C2        C        0.28125        0.62963        0.24477491907514454        0        
C3        C        0.25        0.648148        0.24477491907514454        0        
C4        C        0.28125        0.592592        0.24477491907514454        0        
C1        C        0.3125        0.018519        0.24477491907514454        0        
C2        C        0.34375        0.074075        0.24477491907514454        0        
C3        C        0.3125        0.092592        0.24477491907514454        0        
C4        C        0.34375        0.037037        0.24477491907514454        0        
C1        C        0.3125        0.12963        0.24477491907514454        0        
C2        C        0.34375        0.185185        0.24477491907514454        0        
C3        C        0.3125        0.203703        0.24477491907514454        0        
C4        C        0.34375        0.148148        0.24477491907514454        0        
C1        C        0.3125        0.24074099999999998        0.24477491907514454        0        
C2        C        0.34375        0.296297        0.24477491907514454        0        
C3        C        0.3125        0.314815        0.24477491907514454        0        
C4        C        0.34375        0.259259        0.24477491907514454        0        
C1        C        0.3125        0.351852        0.24477491907514454        0        
C2        C        0.34375        0.407408        0.24477491907514454        0        
C3        C        0.3125        0.42592500000000005        0.24477491907514454        0        
C4        C        0.34375        0.37037        0.24477491907514454        0        
C1        C        0.3125        0.46296300000000007        0.24477491907514454        0        
C2        C        0.34375        0.518519        0.24477491907514454        0        
C3        C        0.3125        0.537037        0.24477491907514454        0        
C4        C        0.34375        0.481481        0.24477491907514454        0        
C1        C        0.3125        0.574075        0.24477491907514454        0        
C2        C        0.34375        0.62963        0.24477491907514454        0        
C3        C        0.3125        0.648148        0.24477491907514454        0        
C4        C        0.34375        0.592592        0.24477491907514454        0        
C_FG        C        0.375        0.018519        0.24477491907514454        0.2        
C2        C        0.40625        0.074075        0.24477491907514454        0        
C3        C        0.375        0.092592        0.24477491907514454        0        
C4        C        0.40625        0.037037        0.24477491907514454        0        
C1        C        0.375        0.12963        0.24477491907514454        0        
C2        C        0.40625        0.185185        0.24477491907514454        0        
C3        C        0.375        0.203703        0.24477491907514454        0        
C4        C        0.40625        0.148148        0.24477491907514454        0        
C_FG        C        0.375        0.24074099999999998        0.24477491907514454        0.2        
C2        C        0.40625        0.296297        0.24477491907514454        0        
C3        C        0.375        0.314815        0.24477491907514454        0        
C4        C        0.40625        0.259259        0.24477491907514454        0        
C1        C        0.375        0.351852        0.24477491907514454        0        
C2        C        0.40625        0.407408        0.24477491907514454        0        
C3        C        0.375        0.42592500000000005        0.24477491907514454        0        
C4        C        0.40625        0.37037        0.24477491907514454        0        
C_FG        C        0.375        0.46296300000000007        0.24477491907514454        0.2        
C2        C        0.40625        0.518519        0.24477491907514454        0        
C3        C        0.375        0.537037        0.24477491907514454        0        
C4        C        0.40625        0.481481        0.24477491907514454        0        
C1        C        0.375        0.574075        0.24477491907514454        0        
C2        C        0.40625        0.62963        0.24477491907514454        0        
C3        C        0.375        0.648148        0.24477491907514454        0        
C4        C        0.40625        0.592592        0.24477491907514454        0        
C1        C        0.4375        0.018519        0.24477491907514454        0        
C2        C        0.46875        0.074075        0.24477491907514454        0        
C3        C        0.4375        0.092592        0.24477491907514454        0        
C4        C        0.46875        0.037037        0.24477491907514454        0        
C1        C        0.4375        0.12963        0.24477491907514454        0        
C2        C        0.46875        0.185185        0.24477491907514454        0        
C3        C        0.4375        0.203703        0.24477491907514454        0        
C4        C        0.46875        0.148148        0.24477491907514454        0        
C1        C        0.4375        0.24074099999999998        0.24477491907514454        0        
C2        C        0.46875        0.296297        0.24477491907514454        0        
C3        C        0.4375        0.314815        0.24477491907514454        0        
C4        C        0.46875        0.259259        0.24477491907514454        0        
C1        C        0.4375        0.351852        0.24477491907514454        0        
C2        C        0.46875        0.407408        0.24477491907514454        0        
C3        C        0.4375        0.42592500000000005        0.24477491907514454        0        
C4        C        0.46875        0.37037        0.24477491907514454        0        
C1        C        0.4375        0.46296300000000007        0.24477491907514454        0        
C2        C        0.46875        0.518519        0.24477491907514454        0        
C3        C        0.4375        0.537037        0.24477491907514454        0        
C4        C        0.46875        0.481481        0.24477491907514454        0        
C1        C        0.4375        0.574075        0.24477491907514454        0        
C2        C        0.46875        0.62963        0.24477491907514454        0        
C3        C        0.4375        0.648148        0.24477491907514454        0        
C4        C        0.46875        0.592592        0.24477491907514454        0        
C1        C        0.5        0.018519        0.24477491907514454        0        
C2        C        0.53125        0.074075        0.24477491907514454        0        
C3        C        0.5        0.092592        0.24477491907514454        0        
C4        C        0.53125        0.037037        0.24477491907514454        0        
C1        C        0.5        0.12963        0.24477491907514454        0        
C2        C        0.53125        0.185185        0.24477491907514454        0        
C3        C        0.5        0.203703        0.24477491907514454        0        
C4        C        0.53125        0.148148        0.24477491907514454        0        
C1        C        0.5        0.24074099999999998        0.24477491907514454        0        
C2        C        0.53125        0.296297        0.24477491907514454        0        
C3        C        0.5        0.314815        0.24477491907514454        0        
C4        C        0.53125        0.259259        0.24477491907514454        0        
C1        C        0.5        0.351852        0.24477491907514454        0        
C2        C        0.53125        0.407408        0.24477491907514454        0        
C3        C        0.5        0.42592500000000005        0.24477491907514454        0        
C4        C        0.53125        0.37037        0.24477491907514454        0        
C1        C        0.5        0.46296300000000007        0.24477491907514454        0        
C2        C        0.53125        0.518519        0.24477491907514454        0        
C3        C        0.5        0.537037        0.24477491907514454        0        
C4        C        0.53125        0.481481        0.24477491907514454        0        
C1        C        0.5        0.574075        0.24477491907514454        0        
C2        C        0.53125        0.62963        0.24477491907514454        0        
C3        C        0.5        0.648148        0.24477491907514454        0        
C4        C        0.53125        0.592592        0.24477491907514454        0        
C_FG        C        0.5625        0.018519        0.24477491907514454        0.2        
C2        C        0.59375        0.074075        0.24477491907514454        0        
C3        C        0.5625        0.092592        0.24477491907514454        0        
C4        C        0.59375        0.037037        0.24477491907514454        0        
C1        C        0.5625        0.12963        0.24477491907514454        0        
C2        C        0.59375        0.185185        0.24477491907514454        0        
C3        C        0.5625        0.203703        0.24477491907514454        0        
C4        C        0.59375        0.148148        0.24477491907514454        0        
C_FG        C        0.5625        0.24074099999999998        0.24477491907514454        0.2        
C2        C        0.59375        0.296297        0.24477491907514454        0        
C3        C        0.5625        0.314815        0.24477491907514454        0        
C4        C        0.59375        0.259259        0.24477491907514454        0        
C1        C        0.5625        0.351852        0.24477491907514454        0        
C2        C        0.59375        0.407408        0.24477491907514454        0        
C3        C        0.5625        0.42592500000000005        0.24477491907514454        0        
C4        C        0.59375        0.37037        0.24477491907514454        0        
C_FG        C        0.5625        0.46296300000000007        0.24477491907514454        0.2        
C2        C        0.59375        0.518519        0.24477491907514454        0        
C3        C        0.5625        0.537037        0.24477491907514454        0        
C4        C        0.59375        0.481481        0.24477491907514454        0        
C1        C        0.5625        0.574075        0.24477491907514454        0        
C2        C        0.59375        0.62963        0.24477491907514454        0        
C3        C        0.5625        0.648148        0.24477491907514454        0        
C4        C        0.59375        0.592592        0.24477491907514454        0        
C1        C        0.625        0.018519        0.24477491907514454        0        
C2        C        0.65625        0.074075        0.24477491907514454        0        
C3        C        0.625        0.092592        0.24477491907514454        0        
C4        C        0.65625        0.037037        0.24477491907514454        0        
C1        C        0.625        0.12963        0.24477491907514454        0        
C2        C        0.65625        0.185185        0.24477491907514454        0        
C3        C        0.625        0.203703        0.24477491907514454        0        
C4        C        0.65625        0.148148        0.24477491907514454        0        
C1        C        0.625        0.24074099999999998        0.24477491907514454        0        
C2        C        0.65625        0.296297        0.24477491907514454        0        
C3        C        0.625        0.314815        0.24477491907514454        0        
C4        C        0.65625        0.259259        0.24477491907514454        0        
C1        C        0.625        0.351852        0.24477491907514454        0        
C2        C        0.65625        0.407408        0.24477491907514454        0        
C3        C        0.625        0.42592500000000005        0.24477491907514454        0        
C4        C        0.65625        0.37037        0.24477491907514454        0        
C1        C        0.625        0.46296300000000007        0.24477491907514454        0        
C2        C        0.65625        0.518519        0.24477491907514454        0        
C3        C        0.625        0.537037        0.24477491907514454        0        
C4        C        0.65625        0.481481        0.24477491907514454        0        
C1        C        0.625        0.574075        0.24477491907514454        0        
C2        C        0.65625        0.62963        0.24477491907514454        0        
C3        C        0.625        0.648148        0.24477491907514454        0        
C4        C        0.65625        0.592592        0.24477491907514454        0        
C1        C        0.6875        0.018519        0.24477491907514454        0        
C2        C        0.71875        0.074075        0.24477491907514454        0        
C3        C        0.6875        0.092592        0.24477491907514454        0        
C4        C        0.71875        0.037037        0.24477491907514454        0        
C1        C        0.6875        0.12963        0.24477491907514454        0        
C2        C        0.71875        0.185185        0.24477491907514454        0        
C3        C        0.6875        0.203703        0.24477491907514454        0        
C4        C        0.71875        0.148148        0.24477491907514454        0        
C1        C        0.6875        0.24074099999999998        0.24477491907514454        0        
C2        C        0.71875        0.296297        0.24477491907514454        0        
C3        C        0.6875        0.314815        0.24477491907514454        0        
C4        C        0.71875        0.259259        0.24477491907514454        0        
C1        C        0.6875        0.351852        0.24477491907514454        0        
C2        C        0.71875        0.407408        0.24477491907514454        0        
C3        C        0.6875        0.42592500000000005        0.24477491907514454        0        
C4        C        0.71875        0.37037        0.24477491907514454        0        
C1        C        0.6875        0.46296300000000007        0.24477491907514454        0        
C2        C        0.71875        0.518519        0.24477491907514454        0        
C3        C        0.6875        0.537037        0.24477491907514454        0        
C4        C        0.71875        0.481481        0.24477491907514454        0        
C1        C        0.6875        0.574075        0.24477491907514454        0        
C2        C        0.71875        0.62963        0.24477491907514454        0        
C3        C        0.6875        0.648148        0.24477491907514454        0        
C4        C        0.71875        0.592592        0.24477491907514454        0        
C_FG        C        0.75        0.018519        0.24477491907514454        0.2        
C2        C        0.78125        0.074075        0.24477491907514454        0        
C3        C        0.75        0.092592        0.24477491907514454        0        
C4        C        0.78125        0.037037        0.24477491907514454        0        
C1        C        0.75        0.12963        0.24477491907514454        0        
C2        C        0.78125        0.185185        0.24477491907514454        0        
C3        C        0.75        0.203703        0.24477491907514454        0        
C4        C        0.78125        0.148148        0.24477491907514454        0        
C_FG        C        0.75        0.24074099999999998        0.24477491907514454        0.2        
C2        C        0.78125        0.296297        0.24477491907514454        0        
C3        C        0.75        0.314815        0.24477491907514454        0        
C4        C        0.78125        0.259259        0.24477491907514454        0        
C1        C        0.75        0.351852        0.24477491907514454        0        
C2        C        0.78125        0.407408        0.24477491907514454        0        
C3        C        0.75        0.42592500000000005        0.24477491907514454        0        
C4        C        0.78125        0.37037        0.24477491907514454        0        
C_FG        C        0.75        0.46296300000000007        0.24477491907514454        0.2        
C2        C        0.78125        0.518519        0.24477491907514454        0        
C3        C        0.75        0.537037        0.24477491907514454        0        
C4        C        0.78125        0.481481        0.24477491907514454        0        
C1        C        0.75        0.574075        0.24477491907514454        0        
C2        C        0.78125        0.62963        0.24477491907514454        0        
C3        C        0.75        0.648148        0.24477491907514454        0        
C4        C        0.78125        0.592592        0.24477491907514454        0        
C1        C        0.8125        0.018519        0.24477491907514454        0        
C2        C        0.84375        0.074075        0.24477491907514454        0        
C3        C        0.8125        0.092592        0.24477491907514454        0        
C4        C        0.84375        0.037037        0.24477491907514454        0        
C1        C        0.8125        0.12963        0.24477491907514454        0        
C2        C        0.84375        0.185185        0.24477491907514454        0        
C3        C        0.8125        0.203703        0.24477491907514454        0        
C4        C        0.84375        0.148148        0.24477491907514454        0        
C1        C        0.8125        0.24074099999999998        0.24477491907514454        0        
C2        C        0.84375        0.296297        0.24477491907514454        0        
C3        C        0.8125        0.314815        0.24477491907514454        0        
C4        C        0.84375        0.259259        0.24477491907514454        0        
C1        C        0.8125        0.351852        0.24477491907514454        0        
C2        C        0.84375        0.407408        0.24477491907514454        0        
C3        C        0.8125        0.42592500000000005        0.24477491907514454        0        
C4        C        0.84375        0.37037        0.24477491907514454        0        
C1        C        0.8125        0.46296300000000007        0.24477491907514454        0        
C2        C        0.84375        0.518519        0.24477491907514454        0        
C3        C        0.8125        0.537037        0.24477491907514454        0        
C4        C        0.84375        0.481481        0.24477491907514454        0        
C1        C        0.8125        0.574075        0.24477491907514454        0        
C2        C        0.84375        0.62963        0.24477491907514454        0        
C3        C        0.8125        0.648148        0.24477491907514454        0        
C4        C        0.84375        0.592592        0.24477491907514454        0        
C1        C        0.875        0.018519        0.24477491907514454        0        
C2        C        0.9062500000000001        0.074075        0.24477491907514454        0        
C3        C        0.875        0.092592        0.24477491907514454        0        
C4        C        0.9062500000000001        0.037037        0.24477491907514454        0        
C1        C        0.875        0.12963        0.24477491907514454        0        
C2        C        0.9062500000000001        0.185185        0.24477491907514454        0        
C3        C        0.875        0.203703        0.24477491907514454        0        
C4        C        0.9062500000000001        0.148148        0.24477491907514454        0        
C1        C        0.875        0.24074099999999998        0.24477491907514454        0        
C2        C        0.9062500000000001        0.296297        0.24477491907514454        0        
C3        C        0.875        0.314815        0.24477491907514454        0        
C4        C        0.9062500000000001        0.259259        0.24477491907514454        0        
C1        C        0.875        0.351852        0.24477491907514454        0        
C2        C        0.9062500000000001        0.407408        0.24477491907514454        0        
C3        C        0.875        0.42592500000000005        0.24477491907514454        0        
C4        C        0.9062500000000001        0.37037        0.24477491907514454        0        
C1        C        0.875        0.46296300000000007        0.24477491907514454        0        
C2        C        0.9062500000000001        0.518519        0.24477491907514454        0        
C3        C        0.875        0.537037        0.24477491907514454        0        
C4        C        0.9062500000000001        0.481481        0.24477491907514454        0        
C1        C        0.875        0.574075        0.24477491907514454        0        
C2        C        0.9062500000000001        0.62963        0.24477491907514454        0        
C3        C        0.875        0.648148        0.24477491907514454        0        
C4        C        0.9062500000000001        0.592592        0.24477491907514454        0        
C_FG        C        0.9375        0.018519        0.24477491907514454        0.2        
C2        C        0.9687500000000001        0.074075        0.24477491907514454        0        
C3        C        0.9375        0.092592        0.24477491907514454        0        
C4        C        0.9687500000000001        0.037037        0.24477491907514454        0        
C1        C        0.9375        0.12963        0.24477491907514454        0        
C2        C        0.9687500000000001        0.185185        0.24477491907514454        0        
C3        C        0.9375        0.203703        0.24477491907514454        0        
C4        C        0.9687500000000001        0.148148        0.24477491907514454        0        
C_FG        C        0.9375        0.24074099999999998        0.24477491907514454        0.2        
C2        C        0.9687500000000001        0.296297        0.24477491907514454        0        
C3        C        0.9375        0.314815        0.24477491907514454        0        
C4        C        0.9687500000000001        0.259259        0.24477491907514454        0        
C1        C        0.9375        0.351852        0.24477491907514454        0        
C2        C        0.9687500000000001        0.407408        0.24477491907514454        0        
C3        C        0.9375        0.42592500000000005        0.24477491907514454        0        
C4        C        0.9687500000000001        0.37037        0.24477491907514454        0        
C_FG        C        0.9375        0.46296300000000007        0.24477491907514454        0.2        
C2        C        0.9687500000000001        0.518519        0.24477491907514454        0        
C3        C        0.9375        0.537037        0.24477491907514454        0        
C4        C        0.9687500000000001        0.481481        0.24477491907514454        0        
C1        C        0.9375        0.574075        0.24477491907514454        0        
C2        C        0.9687500000000001        0.62963        0.24477491907514454        0        
C3        C        0.9375        0.648148        0.24477491907514454        0        
C4        C        0.9687500000000001        0.592592        0.24477491907514454        0        
C_FG        C        0.0        0.685186        0.24477491907514454        0.2        
C1        C        0.0625        0.685186        0.24477491907514454        0        
C1        C        0.125        0.685186        0.24477491907514454        0        
C_FG        C        0.1875        0.685186        0.24477491907514454        0.2        
C1        C        0.25        0.685186        0.24477491907514454        0        
C1        C        0.3125        0.685186        0.24477491907514454        0        
C_FG        C        0.375        0.685186        0.24477491907514454        0.2        
C1        C        0.4375        0.685186        0.24477491907514454        0        
C1        C        0.5        0.685186        0.24477491907514454        0        
C_FG        C        0.5625        0.685186        0.24477491907514454        0.2        
C1        C        0.625        0.685186        0.24477491907514454        0        
C1        C        0.6875        0.685186        0.24477491907514454        0        
C_FG        C        0.75        0.685186        0.24477491907514454        0.2        
C1        C        0.8125        0.685186        0.24477491907514454        0        
C1        C        0.875        0.685186        0.24477491907514454        0        
C_FG        C        0.9375        0.685186        0.24477491907514454        0.2        
C2        C        0.03125        0.740741        0.24477491907514454        0        
C2        C        0.09375        0.740741        0.24477491907514454        0        
C2        C        0.15625        0.740741        0.24477491907514454        0        
C2        C        0.21875        0.740741        0.24477491907514454        0        
C2        C        0.28125        0.740741        0.24477491907514454        0        
C2        C        0.34375        0.740741        0.24477491907514454        0        
C2        C        0.40625        0.740741        0.24477491907514454        0        
C2        C        0.46875        0.740741        0.24477491907514454        0        
C2        C        0.53125        0.740741        0.24477491907514454        0        
C2        C        0.59375        0.740741        0.24477491907514454        0        
C2        C        0.65625        0.740741        0.24477491907514454        0        
C2        C        0.71875        0.740741        0.24477491907514454        0        
C2        C        0.78125        0.740741        0.24477491907514454        0        
C2        C        0.84375        0.740741        0.24477491907514454        0        
C2        C        0.9062500000000001        0.740741        0.24477491907514454        0        
C2        C        0.9687500000000001        0.740741        0.24477491907514454        0        
C3        C        0.0        0.759259        0.24477491907514454        0        
C3        C        0.0625        0.759259        0.24477491907514454        0        
C3        C        0.125        0.759259        0.24477491907514454        0        
C3        C        0.1875        0.759259        0.24477491907514454        0        
C3        C        0.25        0.759259        0.24477491907514454        0        
C3        C        0.3125        0.759259        0.24477491907514454        0        
C3        C        0.375        0.759259        0.24477491907514454        0        
C3        C        0.4375        0.759259        0.24477491907514454        0        
C3        C        0.5        0.759259        0.24477491907514454        0        
C3        C        0.5625        0.759259        0.24477491907514454        0        
C3        C        0.625        0.759259        0.24477491907514454        0        
C3        C        0.6875        0.759259        0.24477491907514454        0        
C3        C        0.75        0.759259        0.24477491907514454        0        
C3        C        0.8125        0.759259        0.24477491907514454        0        
C3        C        0.875        0.759259        0.24477491907514454        0        
C3        C        0.9375        0.759259        0.24477491907514454        0        
C4        C        0.03125        0.703703        0.24477491907514454        0        
C4        C        0.09375        0.703703        0.24477491907514454        0        
C4        C        0.15625        0.703703        0.24477491907514454        0        
C4        C        0.21875        0.703703        0.24477491907514454        0        
C4        C        0.28125        0.703703        0.24477491907514454        0        
C4        C        0.34375        0.703703        0.24477491907514454        0        
C4        C        0.40625        0.703703        0.24477491907514454        0        
C4        C        0.46875        0.703703        0.24477491907514454        0        
C4        C        0.53125        0.703703        0.24477491907514454        0        
C4        C        0.59375        0.703703        0.24477491907514454        0        
C4        C        0.65625        0.703703        0.24477491907514454        0        
C4        C        0.71875        0.703703        0.24477491907514454        0        
C4        C        0.78125        0.703703        0.24477491907514454        0        
C4        C        0.84375        0.703703        0.24477491907514454        0        
C4        C        0.9062500000000001        0.703703        0.24477491907514454        0        
C4        C        0.9687500000000001        0.703703        0.24477491907514454        0        
C1        C        0.0        0.796297        0.24477491907514454        0        
C1        C        0.0625        0.796297        0.24477491907514454        0        
C1        C        0.125        0.796297        0.24477491907514454        0        
C1        C        0.1875        0.796297        0.24477491907514454        0        
C1        C        0.25        0.796297        0.24477491907514454        0        
C1        C        0.3125        0.796297        0.24477491907514454        0        
C1        C        0.375        0.796297        0.24477491907514454        0        
C1        C        0.4375        0.796297        0.24477491907514454        0        
C1        C        0.5        0.796297        0.24477491907514454        0        
C1        C        0.5625        0.796297        0.24477491907514454        0        
C1        C        0.625        0.796297        0.24477491907514454        0        
C1        C        0.6875        0.796297        0.24477491907514454        0        
C1        C        0.75        0.796297        0.24477491907514454        0        
C1        C        0.8125        0.796297        0.24477491907514454        0        
C1        C        0.875        0.796297        0.24477491907514454        0        
C1        C        0.9375        0.796297        0.24477491907514454        0        
C2        C        0.03125        0.851852        0.24477491907514454        0        
C2        C        0.09375        0.851852        0.24477491907514454        0        
C2        C        0.15625        0.851852        0.24477491907514454        0        
C2        C        0.21875        0.851852        0.24477491907514454        0        
C2        C        0.28125        0.851852        0.24477491907514454        0        
C2        C        0.34375        0.851852        0.24477491907514454        0        
C2        C        0.40625        0.851852        0.24477491907514454        0        
C2        C        0.46875        0.851852        0.24477491907514454        0        
C2        C        0.53125        0.851852        0.24477491907514454        0        
C2        C        0.59375        0.851852        0.24477491907514454        0        
C2        C        0.65625        0.851852        0.24477491907514454        0        
C2        C        0.71875        0.851852        0.24477491907514454        0        
C2        C        0.78125        0.851852        0.24477491907514454        0        
C2        C        0.84375        0.851852        0.24477491907514454        0        
C2        C        0.9062500000000001        0.851852        0.24477491907514454        0        
C2        C        0.9687500000000001        0.851852        0.24477491907514454        0        
C3        C        0.0        0.87037        0.24477491907514454        0        
C3        C        0.0625        0.87037        0.24477491907514454        0        
C3        C        0.125        0.87037        0.24477491907514454        0        
C3        C        0.1875        0.87037        0.24477491907514454        0        
C3        C        0.25        0.87037        0.24477491907514454        0        
C3        C        0.3125        0.87037        0.24477491907514454        0        
C3        C        0.375        0.87037        0.24477491907514454        0        
C3        C        0.4375        0.87037        0.24477491907514454        0        
C3        C        0.5        0.87037        0.24477491907514454        0        
C3        C        0.5625        0.87037        0.24477491907514454        0        
C3        C        0.625        0.87037        0.24477491907514454        0        
C3        C        0.6875        0.87037        0.24477491907514454        0        
C3        C        0.75        0.87037        0.24477491907514454        0        
C3        C        0.8125        0.87037        0.24477491907514454        0        
C3        C        0.875        0.87037        0.24477491907514454        0        
C3        C        0.9375        0.87037        0.24477491907514454        0        
C4        C        0.03125        0.814814        0.24477491907514454        0        
C4        C        0.09375        0.814814        0.24477491907514454        0        
C4        C        0.15625        0.814814        0.24477491907514454        0        
C4        C        0.21875        0.814814        0.24477491907514454        0        
C4        C        0.28125        0.814814        0.24477491907514454        0        
C4        C        0.34375        0.814814        0.24477491907514454        0        
C4        C        0.40625        0.814814        0.24477491907514454        0        
C4        C        0.46875        0.814814        0.24477491907514454        0        
C4        C        0.53125        0.814814        0.24477491907514454        0        
C4        C        0.59375        0.814814        0.24477491907514454        0        
C4        C        0.65625        0.814814        0.24477491907514454        0        
C4        C        0.71875        0.814814        0.24477491907514454        0        
C4        C        0.78125        0.814814        0.24477491907514454        0        
C4        C        0.84375        0.814814        0.24477491907514454        0        
C4        C        0.9062500000000001        0.814814        0.24477491907514454        0        
C4        C        0.9687500000000001        0.814814        0.24477491907514454        0        
C_FG        C        0.0        0.907408        0.24477491907514454        0.2        
C1        C        0.0625        0.907408        0.24477491907514454        0        
C1        C        0.125        0.907408        0.24477491907514454        0        
C_FG        C        0.1875        0.907408        0.24477491907514454        0.2        
C1        C        0.25        0.907408        0.24477491907514454        0        
C1        C        0.3125        0.907408        0.24477491907514454        0        
C_FG        C        0.375        0.907408        0.24477491907514454        0.2        
C1        C        0.4375        0.907408        0.24477491907514454        0        
C1        C        0.5        0.907408        0.24477491907514454        0        
C_FG        C        0.5625        0.907408        0.24477491907514454        0.2        
C1        C        0.625        0.907408        0.24477491907514454        0        
C1        C        0.6875        0.907408        0.24477491907514454        0        
C_FG        C        0.75        0.907408        0.24477491907514454        0.2        
C1        C        0.8125        0.907408        0.24477491907514454        0        
C1        C        0.875        0.907408        0.24477491907514454        0        
C_FG        C        0.9375        0.907408        0.24477491907514454        0.2        
C2        C        0.03125        0.962963        0.24477491907514454        0        
C2        C        0.09375        0.962963        0.24477491907514454        0        
C2        C        0.15625        0.962963        0.24477491907514454        0        
C2        C        0.21875        0.962963        0.24477491907514454        0        
C2        C        0.28125        0.962963        0.24477491907514454        0        
C2        C        0.34375        0.962963        0.24477491907514454        0        
C2        C        0.40625        0.962963        0.24477491907514454        0        
C2        C        0.46875        0.962963        0.24477491907514454        0        
C2        C        0.53125        0.962963        0.24477491907514454        0        
C2        C        0.59375        0.962963        0.24477491907514454        0        
C2        C        0.65625        0.962963        0.24477491907514454        0        
C2        C        0.71875        0.962963        0.24477491907514454        0        
C2        C        0.78125        0.962963        0.24477491907514454        0        
C2        C        0.84375        0.962963        0.24477491907514454        0        
C2        C        0.9062500000000001        0.962963        0.24477491907514454        0        
C2        C        0.9687500000000001        0.962963        0.24477491907514454        0        
C3        C        0.0        0.9814809999999999        0.24477491907514454        0        
C3        C        0.0625        0.9814809999999999        0.24477491907514454        0        
C3        C        0.125        0.9814809999999999        0.24477491907514454        0        
C3        C        0.1875        0.9814809999999999        0.24477491907514454        0        
C3        C        0.25        0.9814809999999999        0.24477491907514454        0        
C3        C        0.3125        0.9814809999999999        0.24477491907514454        0        
C3        C        0.375        0.9814809999999999        0.24477491907514454        0        
C3        C        0.4375        0.9814809999999999        0.24477491907514454        0        
C3        C        0.5        0.9814809999999999        0.24477491907514454        0        
C3        C        0.5625        0.9814809999999999        0.24477491907514454        0        
C3        C        0.625        0.9814809999999999        0.24477491907514454        0        
C3        C        0.6875        0.9814809999999999        0.24477491907514454        0        
C3        C        0.75        0.9814809999999999        0.24477491907514454        0        
C3        C        0.8125        0.9814809999999999        0.24477491907514454        0        
C3        C        0.875        0.9814809999999999        0.24477491907514454        0        
C3        C        0.9375        0.9814809999999999        0.24477491907514454        0        
C4        C        0.03125        0.925925        0.24477491907514454        0        
C4        C        0.09375        0.925925        0.24477491907514454        0        
C4        C        0.15625        0.925925        0.24477491907514454        0        
C4        C        0.21875        0.925925        0.24477491907514454        0        
C4        C        0.28125        0.925925        0.24477491907514454        0        
C4        C        0.34375        0.925925        0.24477491907514454        0        
C4        C        0.40625        0.925925        0.24477491907514454        0        
C4        C        0.46875        0.925925        0.24477491907514454        0        
C4        C        0.53125        0.925925        0.24477491907514454        0        
C4        C        0.59375        0.925925        0.24477491907514454        0        
C4        C        0.65625        0.925925        0.24477491907514454        0        
C4        C        0.71875        0.925925        0.24477491907514454        0        
C4        C        0.78125        0.925925        0.24477491907514454        0        
C4        C        0.84375        0.925925        0.24477491907514454        0        
C4        C        0.9062500000000001        0.925925        0.24477491907514454        0        
C4        C        0.9687500000000001        0.925925        0.24477491907514454        0        
O_OH        O        0.0        0.018519        0.00971673410404624        -0.64        
O_OH        O        0.0        0.24074099999999998        0.00971673410404624        -0.64        
O_OH        O        0.0        0.46296300000000007        0.00971673410404624        -0.64        
O_OH        O        0.1875        0.018519        0.00971673410404624        -0.64        
O_OH        O        0.1875        0.24074099999999998        0.00971673410404624        -0.64        
O_OH        O        0.1875        0.46296300000000007        0.00971673410404624        -0.64        
O_OH        O        0.375        0.018519        0.00971673410404624        -0.64        
O_OH        O        0.375        0.24074099999999998        0.00971673410404624        -0.64        
O_OH        O        0.375        0.46296300000000007        0.00971673410404624        -0.64        
O_OH        O        0.5625        0.018519        0.00971673410404624        -0.64        
O_OH        O        0.5625        0.24074099999999998        0.00971673410404624        -0.64        
O_OH        O        0.5625        0.46296300000000007        0.00971673410404624        -0.64        
O_OH        O        0.75        0.018519        0.00971673410404624        -0.64        
O_OH        O        0.75        0.24074099999999998        0.00971673410404624        -0.64        
O_OH        O        0.75        0.46296300000000007        0.00971673410404624        -0.64        
O_OH        O        0.9375        0.018519        0.00971673410404624        -0.64        
O_OH        O        0.9375        0.24074099999999998        0.00971673410404624        -0.64        
O_OH        O        0.9375        0.46296300000000007        0.00971673410404624        -0.64        
O_OH        O        0.0        0.685186        0.00971673410404624        -0.64        
O_OH        O        0.1875        0.685186        0.00971673410404624        -0.64        
O_OH        O        0.375        0.685186        0.00971673410404624        -0.64        
O_OH        O        0.5625        0.685186        0.00971673410404624        -0.64        
O_OH        O        0.75        0.685186        0.00971673410404624        -0.64        
O_OH        O        0.9375        0.685186        0.00971673410404624        -0.64        
O_OH        O        0.0        0.907408        0.00971673410404624        -0.64        
O_OH        O        0.1875        0.907408        0.00971673410404624        -0.64        
O_OH        O        0.375        0.907408        0.00971673410404624        -0.64        
O_OH        O        0.5625        0.907408        0.00971673410404624        -0.64        
O_OH        O        0.75        0.907408        0.00971673410404624        -0.64        
O_OH        O        0.9375        0.907408        0.00971673410404624        -0.64        
O_OH        O        0.0        0.018519        0.2861907225433526        -0.64        
O_OH        O        0.0        0.24074099999999998        0.2861907225433526        -0.64        
O_OH        O        0.0        0.46296300000000007        0.2861907225433526        -0.64        
O_OH        O        0.1875        0.018519        0.2861907225433526        -0.64        
O_OH        O        0.1875        0.24074099999999998        0.2861907225433526        -0.64        
O_OH        O        0.1875        0.46296300000000007        0.2861907225433526        -0.64        
O_OH        O        0.375        0.018519        0.2861907225433526        -0.64        
O_OH        O        0.375        0.24074099999999998        0.2861907225433526        -0.64        
O_OH        O        0.375        0.46296300000000007        0.2861907225433526        -0.64        
O_OH        O        0.5625        0.018519        0.2861907225433526        -0.64        
O_OH        O        0.5625        0.24074099999999998        0.2861907225433526        -0.64        
O_OH        O        0.5625        0.46296300000000007        0.2861907225433526        -0.64        
O_OH        O        0.75        0.018519        0.2861907225433526        -0.64        
O_OH        O        0.75        0.24074099999999998        0.2861907225433526        -0.64        
O_OH        O        0.75        0.46296300000000007        0.2861907225433526        -0.64        
O_OH        O        0.9375        0.018519        0.2861907225433526        -0.64        
O_OH        O        0.9375        0.24074099999999998        0.2861907225433526        -0.64        
O_OH        O        0.9375        0.46296300000000007        0.2861907225433526        -0.64        
O_OH        O        0.0        0.685186        0.2861907225433526        -0.64        
O_OH        O        0.1875        0.685186        0.2861907225433526        -0.64        
O_OH        O        0.375        0.685186        0.2861907225433526        -0.64        
O_OH        O        0.5625        0.685186        0.2861907225433526        -0.64        
O_OH        O        0.75        0.685186        0.2861907225433526        -0.64        
O_OH        O        0.9375        0.685186        0.2861907225433526        -0.64        
O_OH        O        0.0        0.907408        0.2861907225433526        -0.64        
O_OH        O        0.1875        0.907408        0.2861907225433526        -0.64        
O_OH        O        0.375        0.907408        0.2861907225433526        -0.64        
O_OH        O        0.5625        0.907408        0.2861907225433526        -0.64        
O_OH        O        0.75        0.907408        0.2861907225433526        -0.64        
O_OH        O        0.9375        0.907408        0.2861907225433526        -0.64        
H_OH        H        0.0018955230869195413        0.04189158273955184        0.0        0.44        
H_OH        H        0.01889620720140058        0.2539222795551455        0.0        0.44        
H_OH        H        -0.022741168066918706        0.4652036324251224        0.0        0.44        
H_OH        H        0.20993095934541978        0.022967452969976654        0.0        0.44        
H_OH        H        0.17845310006750537        0.2622771354520206        0.0        0.44        
H_OH        H        0.1968916757422802        0.484343018766455        0.0        0.44        
H_OH        H        0.3806747328322702        0.04123739622520854        0.0        0.44        
H_OH        H        0.3884759669835003        0.2596796230999257        0.0        0.44        
H_OH        H        0.39782547167653537        0.4639488433580931        0.0        0.44        
H_OH        H        0.5851090719315415        0.021885602637810597        0.0        0.44        
H_OH        H        0.5486564267491242        0.25939809361399613        0.0        0.44        
H_OH        H        0.5539904063943174        0.48472872869618544        0.0        0.44        
H_OH        H        0.7664157918345604        0.034830252734312374        0.0        0.44        
H_OH        H        0.7285367517711862        0.2487756641514503        0.0        0.44        
H_OH        H        0.7342053672868349        0.4799083091901329        0.0        0.44        
H_OH        H        0.9318660746502313        0.041248097780548595        0.0        0.44        
H_OH        H        0.9158123249557745        0.24811320929765104        0.0        0.44        
H_OH        H        0.9177022291422687        0.47466685343210246        0.0        0.44        
H_OH        H        0.022827333795393426        0.6861253043881609        0.0        0.44        
H_OH        H        0.17123648413970413        0.7016572336972895        0.0        0.44        
H_OH        H        0.3579413392556357        0.7007865457419225        0.0        0.44        
H_OH        H        0.5411319505950012        0.6934837803501505        0.0        0.44        
H_OH        H        0.7458778152287909        0.7082545019784064        0.0        0.44        
H_OH        H        0.9348838774369341        0.7084851684178464        0.0        0.44        
H_OH        H        0.00743430601491814        0.9295849153056995        0.0        0.44        
H_OH        H        0.20820674661584293        0.9173164562269029        0.0        0.44        
H_OH        H        0.389369278075596        0.9256413718510424        0.0        0.44        
H_OH        H        0.572743431040959        0.9283717589651965        0.0        0.44        
H_OH        H        0.7373450961191915        0.9269344771485055        0.0        0.44        
H_OH        H        0.9164555742467545        0.9165359171457669        0.0        0.44        
H_OH        H        0.00146024832617067        0.041924492102364125        0.2959074566473988        0.44        
H_OH        H        0.014183523594511013        0.25912701696200807        0.2959074566473988        0.44        
H_OH        H        0.022837679358853745        0.4635829926862917        0.2959074566473988        0.44        
H_OH        H        0.17752452213981337        0.03961850265481731        0.2959074566473988        0.44        
H_OH        H        0.1838587632600418        0.2638946368025259        0.2959074566473988        0.44        
H_OH        H        0.16481937143223951        0.4657769838584557        0.2959074566473988        0.44        
H_OH        H        0.35386293290767107        0.027418462429018863        0.2959074566473988        0.44        
H_OH        H        0.3554722387321493        0.2529135490238735        0.2959074566473988        0.44        
H_OH        H        0.3604558597276984        0.48104966342061106        0.2959074566473988        0.44        
H_OH        H        0.5724959032069382        0.039608312373546374        0.2959074566473988        0.44        
H_OH        H        0.5808565323930328        0.25470289245899247        0.2959074566473988        0.44        
H_OH        H        0.570754354003608        0.4848320755557651        0.2959074566473988        0.44        
H_OH        H        0.7478838489874928        0.041871619045617016        0.2959074566473988        0.44        
H_OH        H        0.772840081987846        0.24125938896876414        0.2959074566473988        0.44        
H_OH        H        0.7310849900479309        0.47611582646580275        0.2959074566473988        0.44        
H_OH        H        0.9520938798468662        0.03656338804574973        0.2959074566473988        0.44        
H_OH        H        0.951862468635404        0.2589800253210543        0.2959074566473988        0.44        
H_OH        H        0.9150583691538745        0.4673543617350364        0.2959074566473988        0.44        
H_OH        H        0.0032182775413578265        0.7084055740228069        0.2959074566473988        0.44        
H_OH        H        0.164784965479939        0.6876904787668902        0.2959074566473988        0.44        
H_OH        H        0.370191022544292        0.7081139570425478        0.2959074566473988        0.44        
H_OH        H        0.579247862168611        0.7011375059528085        0.2959074566473988        0.44        
H_OH        H        0.7301913276172513        0.696870397084144        0.2959074566473988        0.44        
H_OH        H        0.9245837787979748        0.7045313057921887        0.2959074566473988        0.44        
H_OH        H        -0.020698032995002266        0.9173356252162215        0.2959074566473988        0.44        
H_OH        H        0.18352851610514886        0.9305043475243852        0.2959074566473988        0.44        
H_OH        H        0.38384592452446087        0.9290319457658734        0.2959074566473988        0.44        
H_OH        H        0.5431586802490072        0.919890326648972        0.2959074566473988        0.44        
H_OH        H        0.7596249326575683        0.9286784087697216        0.2959074566473988        0.44        
H_OH        H        0.9540344549291626        0.9235924424513775        0.2959074566473988        0.44        
