data_graphite_ortho

_audit_creation_method RASPA-1.0
_audit_creation_date 2012-2-3
_audit_author_name 'David Dubbeldam'

_cell_length_a    39.36    
_cell_length_b    38.34    
_cell_length_c    34.6    
_cell_angle_alpha 90
_cell_angle_beta  90
_cell_angle_gamma 90
_cell_volume      52213.56      

_symmetry_cell_setting          triclinic
_symmetry_space_group_name_Hall 'P 1'
_symmetry_space_group_name_H-M  'P 1'
_symmetry_Int_Tables_number     1

_symmetry_equiv_pos_as_xyz 'x,y,z'

loop_
_atom_site_label
_atom_site_type_symbol
_atom_site_fract_x
_atom_site_fract_y
_atom_site_fract_z
_atom_site_charge
C_Base_COOH        C        0.0        0.018519        0.06710228323699421        0.08        
C_Base_COOH        C        0.03125        0.074075        0.06710228323699421        0.08        
C_Base_OH        C        0.0        0.092592        0.06710228323699421        0.2        
C_Base_COOH        C        0.03125        0.037037        0.06710228323699421        0.08        
C_Base_OH        C        0.0        0.12963        0.06710228323699421        0.2        
C_Base_CO        C        0.03125        0.185185        0.06710228323699421        0.5        
C_Base_CO        C        0.0        0.203703        0.06710228323699421        0.5        
C_Base_COOH        C        0.03125        0.148148        0.06710228323699421        0.08        
C_Base_OH        C        0.0        0.24074099999999998        0.06710228323699421        0.2        
C_Base_OH        C        0.03125        0.296297        0.06710228323699421        0.2        
C_Base_OH        C        0.0        0.314815        0.06710228323699421        0.2        
C_Base_COOH        C        0.03125        0.259259        0.06710228323699421        0.08        
C_Base_CO        C        0.0        0.351852        0.06710228323699421        0.5        
C_Base_CO        C        0.03125        0.407408        0.06710228323699421        0.5        
C_Base_CO        C        0.0        0.42592500000000005        0.06710228323699421        0.5        
C_Base_OH        C        0.03125        0.37037        0.06710228323699421        0.2        
C_Base_COOH        C        0.0        0.46296300000000007        0.06710228323699421        0.08        
C_Base_CO        C        0.03125        0.518519        0.06710228323699421        0.5        
C_Base_COOH        C        0.0        0.537037        0.06710228323699421        0.08        
C_Base_COOH        C        0.03125        0.481481        0.06710228323699421        0.08        
C_Base_COOH        C        0.0        0.574075        0.06710228323699421        0.08        
C_Base_OH        C        0.03125        0.62963        0.06710228323699421        0.2        
C_Base_COOH        C        0.0        0.648148        0.06710228323699421        0.08        
C_Base_CO        C        0.03125        0.592592        0.06710228323699421        0.5        
C_Base_COOH        C        0.0625        0.018519        0.06710228323699421        0.08        
C_Base_COOH        C        0.09375        0.074075        0.06710228323699421        0.08        
C_Base_OH        C        0.0625        0.092592        0.06710228323699421        0.2        
C_Base_COOH        C        0.09375        0.037037        0.06710228323699421        0.08        
C_Base_OH        C        0.0625        0.12963        0.06710228323699421        0.2        
C_Base_CO        C        0.09375        0.185185        0.06710228323699421        0.5        
C_Base_CO        C        0.0625        0.203703        0.06710228323699421        0.5        
C_Base_COOH        C        0.09375        0.148148        0.06710228323699421        0.08        
C_Base_OH        C        0.0625        0.24074099999999998        0.06710228323699421        0.2        
C_Base_OH        C        0.09375        0.296297        0.06710228323699421        0.2        
C_Base_OH        C        0.0625        0.314815        0.06710228323699421        0.2        
C_Base_COOH        C        0.09375        0.259259        0.06710228323699421        0.08        
C_Base_CO        C        0.0625        0.351852        0.06710228323699421        0.5        
C_Base_CO        C        0.09375        0.407408        0.06710228323699421        0.5        
C_Base_CO        C        0.0625        0.42592500000000005        0.06710228323699421        0.5        
C_Base_OH        C        0.09375        0.37037        0.06710228323699421        0.2        
C_Base_COOH        C        0.0625        0.46296300000000007        0.06710228323699421        0.08        
C_Base_CO        C        0.09375        0.518519        0.06710228323699421        0.5        
C_Base_COOH        C        0.0625        0.537037        0.06710228323699421        0.08        
C_Base_COOH        C        0.09375        0.481481        0.06710228323699421        0.08        
C_Base_COOH        C        0.0625        0.574075        0.06710228323699421        0.08        
C_Base_OH        C        0.09375        0.62963        0.06710228323699421        0.2        
C_Base_COOH        C        0.0625        0.648148        0.06710228323699421        0.08        
C_Base_CO        C        0.09375        0.592592        0.06710228323699421        0.5        
C1        C        0.125        0.018519        0.06710228323699421        0        
C2        C        0.15625        0.074075        0.06710228323699421        0        
C3        C        0.125        0.092592        0.06710228323699421        0        
C4        C        0.15625        0.037037        0.06710228323699421        0        
C1        C        0.125        0.12963        0.06710228323699421        0        
C2        C        0.15625        0.185185        0.06710228323699421        0        
C3        C        0.125        0.203703        0.06710228323699421        0        
C4        C        0.15625        0.148148        0.06710228323699421        0        
C1        C        0.125        0.24074099999999998        0.06710228323699421        0        
C2        C        0.15625        0.296297        0.06710228323699421        0        
C3        C        0.125        0.314815        0.06710228323699421        0        
C4        C        0.15625        0.259259        0.06710228323699421        0        
C1        C        0.125        0.351852        0.06710228323699421        0        
C2        C        0.15625        0.407408        0.06710228323699421        0        
C3        C        0.125        0.42592500000000005        0.06710228323699421        0        
C4        C        0.15625        0.37037        0.06710228323699421        0        
C1        C        0.125        0.46296300000000007        0.06710228323699421        0        
C2        C        0.15625        0.518519        0.06710228323699421        0        
C3        C        0.125        0.537037        0.06710228323699421        0        
C4        C        0.15625        0.481481        0.06710228323699421        0        
C1        C        0.125        0.574075        0.06710228323699421        0        
C2        C        0.15625        0.62963        0.06710228323699421        0        
C3        C        0.125        0.648148        0.06710228323699421        0        
C4        C        0.15625        0.592592        0.06710228323699421        0        
C1        C        0.1875        0.018519        0.06710228323699421        0        
C2        C        0.21875        0.074075        0.06710228323699421        0        
C3        C        0.1875        0.092592        0.06710228323699421        0        
C4        C        0.21875        0.037037        0.06710228323699421        0        
C1        C        0.1875        0.12963        0.06710228323699421        0        
C2        C        0.21875        0.185185        0.06710228323699421        0        
C3        C        0.1875        0.203703        0.06710228323699421        0        
C4        C        0.21875        0.148148        0.06710228323699421        0        
C1        C        0.1875        0.24074099999999998        0.06710228323699421        0        
C2        C        0.21875        0.296297        0.06710228323699421        0        
C3        C        0.1875        0.314815        0.06710228323699421        0        
C4        C        0.21875        0.259259        0.06710228323699421        0        
C1        C        0.1875        0.351852        0.06710228323699421        0        
C2        C        0.21875        0.407408        0.06710228323699421        0        
C3        C        0.1875        0.42592500000000005        0.06710228323699421        0        
C4        C        0.21875        0.37037        0.06710228323699421        0        
C1        C        0.1875        0.46296300000000007        0.06710228323699421        0        
C2        C        0.21875        0.518519        0.06710228323699421        0        
C3        C        0.1875        0.537037        0.06710228323699421        0        
C4        C        0.21875        0.481481        0.06710228323699421        0        
C1        C        0.1875        0.574075        0.06710228323699421        0        
C2        C        0.21875        0.62963        0.06710228323699421        0        
C3        C        0.1875        0.648148        0.06710228323699421        0        
C4        C        0.21875        0.592592        0.06710228323699421        0        
C1        C        0.25        0.018519        0.06710228323699421        0        
C2        C        0.28125        0.074075        0.06710228323699421        0        
C3        C        0.25        0.092592        0.06710228323699421        0        
C4        C        0.28125        0.037037        0.06710228323699421        0        
C1        C        0.25        0.12963        0.06710228323699421        0        
C2        C        0.28125        0.185185        0.06710228323699421        0        
C3        C        0.25        0.203703        0.06710228323699421        0        
C4        C        0.28125        0.148148        0.06710228323699421        0        
C1        C        0.25        0.24074099999999998        0.06710228323699421        0        
C2        C        0.28125        0.296297        0.06710228323699421        0        
C3        C        0.25        0.314815        0.06710228323699421        0        
C4        C        0.28125        0.259259        0.06710228323699421        0        
C1        C        0.25        0.351852        0.06710228323699421        0        
C2        C        0.28125        0.407408        0.06710228323699421        0        
C3        C        0.25        0.42592500000000005        0.06710228323699421        0        
C4        C        0.28125        0.37037        0.06710228323699421        0        
C1        C        0.25        0.46296300000000007        0.06710228323699421        0        
C2        C        0.28125        0.518519        0.06710228323699421        0        
C3        C        0.25        0.537037        0.06710228323699421        0        
C4        C        0.28125        0.481481        0.06710228323699421        0        
C1        C        0.25        0.574075        0.06710228323699421        0        
C2        C        0.28125        0.62963        0.06710228323699421        0        
C3        C        0.25        0.648148        0.06710228323699421        0        
C4        C        0.28125        0.592592        0.06710228323699421        0        
C1        C        0.3125        0.018519        0.06710228323699421        0        
C2        C        0.34375        0.074075        0.06710228323699421        0        
C3        C        0.3125        0.092592        0.06710228323699421        0        
C4        C        0.34375        0.037037        0.06710228323699421        0        
C1        C        0.3125        0.12963        0.06710228323699421        0        
C2        C        0.34375        0.185185        0.06710228323699421        0        
C3        C        0.3125        0.203703        0.06710228323699421        0        
C4        C        0.34375        0.148148        0.06710228323699421        0        
C1        C        0.3125        0.24074099999999998        0.06710228323699421        0        
C2        C        0.34375        0.296297        0.06710228323699421        0        
C3        C        0.3125        0.314815        0.06710228323699421        0        
C4        C        0.34375        0.259259        0.06710228323699421        0        
C1        C        0.3125        0.351852        0.06710228323699421        0        
C2        C        0.34375        0.407408        0.06710228323699421        0        
C3        C        0.3125        0.42592500000000005        0.06710228323699421        0        
C4        C        0.34375        0.37037        0.06710228323699421        0        
C1        C        0.3125        0.46296300000000007        0.06710228323699421        0        
C2        C        0.34375        0.518519        0.06710228323699421        0        
C3        C        0.3125        0.537037        0.06710228323699421        0        
C4        C        0.34375        0.481481        0.06710228323699421        0        
C1        C        0.3125        0.574075        0.06710228323699421        0        
C2        C        0.34375        0.62963        0.06710228323699421        0        
C3        C        0.3125        0.648148        0.06710228323699421        0        
C4        C        0.34375        0.592592        0.06710228323699421        0        
C1        C        0.375        0.018519        0.06710228323699421        0        
C2        C        0.40625        0.074075        0.06710228323699421        0        
C3        C        0.375        0.092592        0.06710228323699421        0        
C4        C        0.40625        0.037037        0.06710228323699421        0        
C1        C        0.375        0.12963        0.06710228323699421        0        
C2        C        0.40625        0.185185        0.06710228323699421        0        
C3        C        0.375        0.203703        0.06710228323699421        0        
C4        C        0.40625        0.148148        0.06710228323699421        0        
C1        C        0.375        0.24074099999999998        0.06710228323699421        0        
C2        C        0.40625        0.296297        0.06710228323699421        0        
C3        C        0.375        0.314815        0.06710228323699421        0        
C4        C        0.40625        0.259259        0.06710228323699421        0        
C1        C        0.375        0.351852        0.06710228323699421        0        
C2        C        0.40625        0.407408        0.06710228323699421        0        
C3        C        0.375        0.42592500000000005        0.06710228323699421        0        
C4        C        0.40625        0.37037        0.06710228323699421        0        
C1        C        0.375        0.46296300000000007        0.06710228323699421        0        
C2        C        0.40625        0.518519        0.06710228323699421        0        
C3        C        0.375        0.537037        0.06710228323699421        0        
C4        C        0.40625        0.481481        0.06710228323699421        0        
C1        C        0.375        0.574075        0.06710228323699421        0        
C2        C        0.40625        0.62963        0.06710228323699421        0        
C3        C        0.375        0.648148        0.06710228323699421        0        
C4        C        0.40625        0.592592        0.06710228323699421        0        
C1        C        0.4375        0.018519        0.06710228323699421        0        
C2        C        0.46875        0.074075        0.06710228323699421        0        
C3        C        0.4375        0.092592        0.06710228323699421        0        
C4        C        0.46875        0.037037        0.06710228323699421        0        
C1        C        0.4375        0.12963        0.06710228323699421        0        
C2        C        0.46875        0.185185        0.06710228323699421        0        
C3        C        0.4375        0.203703        0.06710228323699421        0        
C4        C        0.46875        0.148148        0.06710228323699421        0        
C1        C        0.4375        0.24074099999999998        0.06710228323699421        0        
C2        C        0.46875        0.296297        0.06710228323699421        0        
C3        C        0.4375        0.314815        0.06710228323699421        0        
C4        C        0.46875        0.259259        0.06710228323699421        0        
C1        C        0.4375        0.351852        0.06710228323699421        0        
C2        C        0.46875        0.407408        0.06710228323699421        0        
C3        C        0.4375        0.42592500000000005        0.06710228323699421        0        
C4        C        0.46875        0.37037        0.06710228323699421        0        
C1        C        0.4375        0.46296300000000007        0.06710228323699421        0        
C2        C        0.46875        0.518519        0.06710228323699421        0        
C3        C        0.4375        0.537037        0.06710228323699421        0        
C4        C        0.46875        0.481481        0.06710228323699421        0        
C1        C        0.4375        0.574075        0.06710228323699421        0        
C2        C        0.46875        0.62963        0.06710228323699421        0        
C3        C        0.4375        0.648148        0.06710228323699421        0        
C4        C        0.46875        0.592592        0.06710228323699421        0        
C1        C        0.5        0.018519        0.06710228323699421        0        
C2        C        0.53125        0.074075        0.06710228323699421        0        
C3        C        0.5        0.092592        0.06710228323699421        0        
C4        C        0.53125        0.037037        0.06710228323699421        0        
C1        C        0.5        0.12963        0.06710228323699421        0        
C2        C        0.53125        0.185185        0.06710228323699421        0        
C3        C        0.5        0.203703        0.06710228323699421        0        
C4        C        0.53125        0.148148        0.06710228323699421        0        
C1        C        0.5        0.24074099999999998        0.06710228323699421        0        
C2        C        0.53125        0.296297        0.06710228323699421        0        
C3        C        0.5        0.314815        0.06710228323699421        0        
C4        C        0.53125        0.259259        0.06710228323699421        0        
C1        C        0.5        0.351852        0.06710228323699421        0        
C2        C        0.53125        0.407408        0.06710228323699421        0        
C3        C        0.5        0.42592500000000005        0.06710228323699421        0        
C4        C        0.53125        0.37037        0.06710228323699421        0        
C1        C        0.5        0.46296300000000007        0.06710228323699421        0        
C2        C        0.53125        0.518519        0.06710228323699421        0        
C3        C        0.5        0.537037        0.06710228323699421        0        
C4        C        0.53125        0.481481        0.06710228323699421        0        
C1        C        0.5        0.574075        0.06710228323699421        0        
C2        C        0.53125        0.62963        0.06710228323699421        0        
C3        C        0.5        0.648148        0.06710228323699421        0        
C4        C        0.53125        0.592592        0.06710228323699421        0        
C1        C        0.5625        0.018519        0.06710228323699421        0        
C2        C        0.59375        0.074075        0.06710228323699421        0        
C3        C        0.5625        0.092592        0.06710228323699421        0        
C4        C        0.59375        0.037037        0.06710228323699421        0        
C1        C        0.5625        0.12963        0.06710228323699421        0        
C2        C        0.59375        0.185185        0.06710228323699421        0        
C3        C        0.5625        0.203703        0.06710228323699421        0        
C4        C        0.59375        0.148148        0.06710228323699421        0        
C1        C        0.5625        0.24074099999999998        0.06710228323699421        0        
C2        C        0.59375        0.296297        0.06710228323699421        0        
C3        C        0.5625        0.314815        0.06710228323699421        0        
C4        C        0.59375        0.259259        0.06710228323699421        0        
C1        C        0.5625        0.351852        0.06710228323699421        0        
C2        C        0.59375        0.407408        0.06710228323699421        0        
C3        C        0.5625        0.42592500000000005        0.06710228323699421        0        
C4        C        0.59375        0.37037        0.06710228323699421        0        
C1        C        0.5625        0.46296300000000007        0.06710228323699421        0        
C2        C        0.59375        0.518519        0.06710228323699421        0        
C3        C        0.5625        0.537037        0.06710228323699421        0        
C4        C        0.59375        0.481481        0.06710228323699421        0        
C1        C        0.5625        0.574075        0.06710228323699421        0        
C2        C        0.59375        0.62963        0.06710228323699421        0        
C3        C        0.5625        0.648148        0.06710228323699421        0        
C4        C        0.59375        0.592592        0.06710228323699421        0        
C1        C        0.625        0.018519        0.06710228323699421        0        
C2        C        0.65625        0.074075        0.06710228323699421        0        
C3        C        0.625        0.092592        0.06710228323699421        0        
C4        C        0.65625        0.037037        0.06710228323699421        0        
C1        C        0.625        0.12963        0.06710228323699421        0        
C2        C        0.65625        0.185185        0.06710228323699421        0        
C3        C        0.625        0.203703        0.06710228323699421        0        
C4        C        0.65625        0.148148        0.06710228323699421        0        
C1        C        0.625        0.24074099999999998        0.06710228323699421        0        
C2        C        0.65625        0.296297        0.06710228323699421        0        
C3        C        0.625        0.314815        0.06710228323699421        0        
C4        C        0.65625        0.259259        0.06710228323699421        0        
C1        C        0.625        0.351852        0.06710228323699421        0        
C2        C        0.65625        0.407408        0.06710228323699421        0        
C3        C        0.625        0.42592500000000005        0.06710228323699421        0        
C4        C        0.65625        0.37037        0.06710228323699421        0        
C1        C        0.625        0.46296300000000007        0.06710228323699421        0        
C2        C        0.65625        0.518519        0.06710228323699421        0        
C3        C        0.625        0.537037        0.06710228323699421        0        
C4        C        0.65625        0.481481        0.06710228323699421        0        
C1        C        0.625        0.574075        0.06710228323699421        0        
C2        C        0.65625        0.62963        0.06710228323699421        0        
C3        C        0.625        0.648148        0.06710228323699421        0        
C4        C        0.65625        0.592592        0.06710228323699421        0        
C1        C        0.6875        0.018519        0.06710228323699421        0        
C2        C        0.71875        0.074075        0.06710228323699421        0        
C3        C        0.6875        0.092592        0.06710228323699421        0        
C4        C        0.71875        0.037037        0.06710228323699421        0        
C1        C        0.6875        0.12963        0.06710228323699421        0        
C2        C        0.71875        0.185185        0.06710228323699421        0        
C3        C        0.6875        0.203703        0.06710228323699421        0        
C4        C        0.71875        0.148148        0.06710228323699421        0        
C1        C        0.6875        0.24074099999999998        0.06710228323699421        0        
C2        C        0.71875        0.296297        0.06710228323699421        0        
C3        C        0.6875        0.314815        0.06710228323699421        0        
C4        C        0.71875        0.259259        0.06710228323699421        0        
C1        C        0.6875        0.351852        0.06710228323699421        0        
C2        C        0.71875        0.407408        0.06710228323699421        0        
C3        C        0.6875        0.42592500000000005        0.06710228323699421        0        
C4        C        0.71875        0.37037        0.06710228323699421        0        
C1        C        0.6875        0.46296300000000007        0.06710228323699421        0        
C2        C        0.71875        0.518519        0.06710228323699421        0        
C3        C        0.6875        0.537037        0.06710228323699421        0        
C4        C        0.71875        0.481481        0.06710228323699421        0        
C1        C        0.6875        0.574075        0.06710228323699421        0        
C2        C        0.71875        0.62963        0.06710228323699421        0        
C3        C        0.6875        0.648148        0.06710228323699421        0        
C4        C        0.71875        0.592592        0.06710228323699421        0        
C1        C        0.75        0.018519        0.06710228323699421        0        
C2        C        0.78125        0.074075        0.06710228323699421        0        
C3        C        0.75        0.092592        0.06710228323699421        0        
C4        C        0.78125        0.037037        0.06710228323699421        0        
C1        C        0.75        0.12963        0.06710228323699421        0        
C2        C        0.78125        0.185185        0.06710228323699421        0        
C3        C        0.75        0.203703        0.06710228323699421        0        
C4        C        0.78125        0.148148        0.06710228323699421        0        
C1        C        0.75        0.24074099999999998        0.06710228323699421        0        
C2        C        0.78125        0.296297        0.06710228323699421        0        
C3        C        0.75        0.314815        0.06710228323699421        0        
C4        C        0.78125        0.259259        0.06710228323699421        0        
C1        C        0.75        0.351852        0.06710228323699421        0        
C2        C        0.78125        0.407408        0.06710228323699421        0        
C3        C        0.75        0.42592500000000005        0.06710228323699421        0        
C4        C        0.78125        0.37037        0.06710228323699421        0        
C1        C        0.75        0.46296300000000007        0.06710228323699421        0        
C2        C        0.78125        0.518519        0.06710228323699421        0        
C3        C        0.75        0.537037        0.06710228323699421        0        
C4        C        0.78125        0.481481        0.06710228323699421        0        
C1        C        0.75        0.574075        0.06710228323699421        0        
C2        C        0.78125        0.62963        0.06710228323699421        0        
C3        C        0.75        0.648148        0.06710228323699421        0        
C4        C        0.78125        0.592592        0.06710228323699421        0        
C1        C        0.8125        0.018519        0.06710228323699421        0        
C2        C        0.84375        0.074075        0.06710228323699421        0        
C3        C        0.8125        0.092592        0.06710228323699421        0        
C4        C        0.84375        0.037037        0.06710228323699421        0        
C1        C        0.8125        0.12963        0.06710228323699421        0        
C2        C        0.84375        0.185185        0.06710228323699421        0        
C3        C        0.8125        0.203703        0.06710228323699421        0        
C4        C        0.84375        0.148148        0.06710228323699421        0        
C1        C        0.8125        0.24074099999999998        0.06710228323699421        0        
C2        C        0.84375        0.296297        0.06710228323699421        0        
C3        C        0.8125        0.314815        0.06710228323699421        0        
C4        C        0.84375        0.259259        0.06710228323699421        0        
C1        C        0.8125        0.351852        0.06710228323699421        0        
C2        C        0.84375        0.407408        0.06710228323699421        0        
C3        C        0.8125        0.42592500000000005        0.06710228323699421        0        
C4        C        0.84375        0.37037        0.06710228323699421        0        
C1        C        0.8125        0.46296300000000007        0.06710228323699421        0        
C2        C        0.84375        0.518519        0.06710228323699421        0        
C3        C        0.8125        0.537037        0.06710228323699421        0        
C4        C        0.84375        0.481481        0.06710228323699421        0        
C1        C        0.8125        0.574075        0.06710228323699421        0        
C2        C        0.84375        0.62963        0.06710228323699421        0        
C3        C        0.8125        0.648148        0.06710228323699421        0        
C4        C        0.84375        0.592592        0.06710228323699421        0        
C1        C        0.875        0.018519        0.06710228323699421        0        
C2        C        0.9062500000000001        0.074075        0.06710228323699421        0        
C3        C        0.875        0.092592        0.06710228323699421        0        
C4        C        0.9062500000000001        0.037037        0.06710228323699421        0        
C1        C        0.875        0.12963        0.06710228323699421        0        
C2        C        0.9062500000000001        0.185185        0.06710228323699421        0        
C3        C        0.875        0.203703        0.06710228323699421        0        
C4        C        0.9062500000000001        0.148148        0.06710228323699421        0        
C1        C        0.875        0.24074099999999998        0.06710228323699421        0        
C2        C        0.9062500000000001        0.296297        0.06710228323699421        0        
C3        C        0.875        0.314815        0.06710228323699421        0        
C4        C        0.9062500000000001        0.259259        0.06710228323699421        0        
C1        C        0.875        0.351852        0.06710228323699421        0        
C2        C        0.9062500000000001        0.407408        0.06710228323699421        0        
C3        C        0.875        0.42592500000000005        0.06710228323699421        0        
C4        C        0.9062500000000001        0.37037        0.06710228323699421        0        
C1        C        0.875        0.46296300000000007        0.06710228323699421        0        
C2        C        0.9062500000000001        0.518519        0.06710228323699421        0        
C3        C        0.875        0.537037        0.06710228323699421        0        
C4        C        0.9062500000000001        0.481481        0.06710228323699421        0        
C1        C        0.875        0.574075        0.06710228323699421        0        
C2        C        0.9062500000000001        0.62963        0.06710228323699421        0        
C3        C        0.875        0.648148        0.06710228323699421        0        
C4        C        0.9062500000000001        0.592592        0.06710228323699421        0        
C1        C        0.9375        0.018519        0.06710228323699421        0        
C2        C        0.9687500000000001        0.074075        0.06710228323699421        0        
C3        C        0.9375        0.092592        0.06710228323699421        0        
C4        C        0.9687500000000001        0.037037        0.06710228323699421        0        
C1        C        0.9375        0.12963        0.06710228323699421        0        
C2        C        0.9687500000000001        0.185185        0.06710228323699421        0        
C3        C        0.9375        0.203703        0.06710228323699421        0        
C4        C        0.9687500000000001        0.148148        0.06710228323699421        0        
C1        C        0.9375        0.24074099999999998        0.06710228323699421        0        
C2        C        0.9687500000000001        0.296297        0.06710228323699421        0        
C3        C        0.9375        0.314815        0.06710228323699421        0        
C4        C        0.9687500000000001        0.259259        0.06710228323699421        0        
C1        C        0.9375        0.351852        0.06710228323699421        0        
C2        C        0.9687500000000001        0.407408        0.06710228323699421        0        
C3        C        0.9375        0.42592500000000005        0.06710228323699421        0        
C4        C        0.9687500000000001        0.37037        0.06710228323699421        0        
C1        C        0.9375        0.46296300000000007        0.06710228323699421        0        
C2        C        0.9687500000000001        0.518519        0.06710228323699421        0        
C3        C        0.9375        0.537037        0.06710228323699421        0        
C4        C        0.9687500000000001        0.481481        0.06710228323699421        0        
C1        C        0.9375        0.574075        0.06710228323699421        0        
C2        C        0.9687500000000001        0.62963        0.06710228323699421        0        
C3        C        0.9375        0.648148        0.06710228323699421        0        
C4        C        0.9687500000000001        0.592592        0.06710228323699421        0        
C1        C        0.0        0.685186        0.06710228323699421        0        
C1        C        0.0625        0.685186        0.06710228323699421        0        
C1        C        0.125        0.685186        0.06710228323699421        0        
C1        C        0.1875        0.685186        0.06710228323699421        0        
C1        C        0.25        0.685186        0.06710228323699421        0        
C1        C        0.3125        0.685186        0.06710228323699421        0        
C1        C        0.375        0.685186        0.06710228323699421        0        
C1        C        0.4375        0.685186        0.06710228323699421        0        
C1        C        0.5        0.685186        0.06710228323699421        0        
C1        C        0.5625        0.685186        0.06710228323699421        0        
C1        C        0.625        0.685186        0.06710228323699421        0        
C1        C        0.6875        0.685186        0.06710228323699421        0        
C1        C        0.75        0.685186        0.06710228323699421        0        
C1        C        0.8125        0.685186        0.06710228323699421        0        
C1        C        0.875        0.685186        0.06710228323699421        0        
C1        C        0.9375        0.685186        0.06710228323699421        0        
C2        C        0.03125        0.740741        0.06710228323699421        0        
C2        C        0.09375        0.740741        0.06710228323699421        0        
C2        C        0.15625        0.740741        0.06710228323699421        0        
C2        C        0.21875        0.740741        0.06710228323699421        0        
C2        C        0.28125        0.740741        0.06710228323699421        0        
C2        C        0.34375        0.740741        0.06710228323699421        0        
C2        C        0.40625        0.740741        0.06710228323699421        0        
C2        C        0.46875        0.740741        0.06710228323699421        0        
C2        C        0.53125        0.740741        0.06710228323699421        0        
C2        C        0.59375        0.740741        0.06710228323699421        0        
C2        C        0.65625        0.740741        0.06710228323699421        0        
C2        C        0.71875        0.740741        0.06710228323699421        0        
C2        C        0.78125        0.740741        0.06710228323699421        0        
C2        C        0.84375        0.740741        0.06710228323699421        0        
C2        C        0.9062500000000001        0.740741        0.06710228323699421        0        
C2        C        0.9687500000000001        0.740741        0.06710228323699421        0        
C3        C        0.0        0.759259        0.06710228323699421        0        
C3        C        0.0625        0.759259        0.06710228323699421        0        
C3        C        0.125        0.759259        0.06710228323699421        0        
C3        C        0.1875        0.759259        0.06710228323699421        0        
C3        C        0.25        0.759259        0.06710228323699421        0        
C3        C        0.3125        0.759259        0.06710228323699421        0        
C3        C        0.375        0.759259        0.06710228323699421        0        
C3        C        0.4375        0.759259        0.06710228323699421        0        
C3        C        0.5        0.759259        0.06710228323699421        0        
C3        C        0.5625        0.759259        0.06710228323699421        0        
C3        C        0.625        0.759259        0.06710228323699421        0        
C3        C        0.6875        0.759259        0.06710228323699421        0        
C3        C        0.75        0.759259        0.06710228323699421        0        
C3        C        0.8125        0.759259        0.06710228323699421        0        
C3        C        0.875        0.759259        0.06710228323699421        0        
C3        C        0.9375        0.759259        0.06710228323699421        0        
C4        C        0.03125        0.703703        0.06710228323699421        0        
C4        C        0.09375        0.703703        0.06710228323699421        0        
C4        C        0.15625        0.703703        0.06710228323699421        0        
C4        C        0.21875        0.703703        0.06710228323699421        0        
C4        C        0.28125        0.703703        0.06710228323699421        0        
C4        C        0.34375        0.703703        0.06710228323699421        0        
C4        C        0.40625        0.703703        0.06710228323699421        0        
C4        C        0.46875        0.703703        0.06710228323699421        0        
C4        C        0.53125        0.703703        0.06710228323699421        0        
C4        C        0.59375        0.703703        0.06710228323699421        0        
C4        C        0.65625        0.703703        0.06710228323699421        0        
C4        C        0.71875        0.703703        0.06710228323699421        0        
C4        C        0.78125        0.703703        0.06710228323699421        0        
C4        C        0.84375        0.703703        0.06710228323699421        0        
C4        C        0.9062500000000001        0.703703        0.06710228323699421        0        
C4        C        0.9687500000000001        0.703703        0.06710228323699421        0        
C1        C        0.0        0.796297        0.06710228323699421        0        
C1        C        0.0625        0.796297        0.06710228323699421        0        
C1        C        0.125        0.796297        0.06710228323699421        0        
C1        C        0.1875        0.796297        0.06710228323699421        0        
C1        C        0.25        0.796297        0.06710228323699421        0        
C1        C        0.3125        0.796297        0.06710228323699421        0        
C1        C        0.375        0.796297        0.06710228323699421        0        
C1        C        0.4375        0.796297        0.06710228323699421        0        
C1        C        0.5        0.796297        0.06710228323699421        0        
C1        C        0.5625        0.796297        0.06710228323699421        0        
C1        C        0.625        0.796297        0.06710228323699421        0        
C1        C        0.6875        0.796297        0.06710228323699421        0        
C1        C        0.75        0.796297        0.06710228323699421        0        
C1        C        0.8125        0.796297        0.06710228323699421        0        
C1        C        0.875        0.796297        0.06710228323699421        0        
C1        C        0.9375        0.796297        0.06710228323699421        0        
C2        C        0.03125        0.851852        0.06710228323699421        0        
C2        C        0.09375        0.851852        0.06710228323699421        0        
C2        C        0.15625        0.851852        0.06710228323699421        0        
C2        C        0.21875        0.851852        0.06710228323699421        0        
C2        C        0.28125        0.851852        0.06710228323699421        0        
C2        C        0.34375        0.851852        0.06710228323699421        0        
C2        C        0.40625        0.851852        0.06710228323699421        0        
C2        C        0.46875        0.851852        0.06710228323699421        0        
C2        C        0.53125        0.851852        0.06710228323699421        0        
C2        C        0.59375        0.851852        0.06710228323699421        0        
C2        C        0.65625        0.851852        0.06710228323699421        0        
C2        C        0.71875        0.851852        0.06710228323699421        0        
C2        C        0.78125        0.851852        0.06710228323699421        0        
C2        C        0.84375        0.851852        0.06710228323699421        0        
C2        C        0.9062500000000001        0.851852        0.06710228323699421        0        
C2        C        0.9687500000000001        0.851852        0.06710228323699421        0        
C3        C        0.0        0.87037        0.06710228323699421        0        
C3        C        0.0625        0.87037        0.06710228323699421        0        
C3        C        0.125        0.87037        0.06710228323699421        0        
C3        C        0.1875        0.87037        0.06710228323699421        0        
C3        C        0.25        0.87037        0.06710228323699421        0        
C3        C        0.3125        0.87037        0.06710228323699421        0        
C3        C        0.375        0.87037        0.06710228323699421        0        
C3        C        0.4375        0.87037        0.06710228323699421        0        
C3        C        0.5        0.87037        0.06710228323699421        0        
C3        C        0.5625        0.87037        0.06710228323699421        0        
C3        C        0.625        0.87037        0.06710228323699421        0        
C3        C        0.6875        0.87037        0.06710228323699421        0        
C3        C        0.75        0.87037        0.06710228323699421        0        
C3        C        0.8125        0.87037        0.06710228323699421        0        
C3        C        0.875        0.87037        0.06710228323699421        0        
C3        C        0.9375        0.87037        0.06710228323699421        0        
C4        C        0.03125        0.814814        0.06710228323699421        0        
C4        C        0.09375        0.814814        0.06710228323699421        0        
C4        C        0.15625        0.814814        0.06710228323699421        0        
C4        C        0.21875        0.814814        0.06710228323699421        0        
C4        C        0.28125        0.814814        0.06710228323699421        0        
C4        C        0.34375        0.814814        0.06710228323699421        0        
C4        C        0.40625        0.814814        0.06710228323699421        0        
C4        C        0.46875        0.814814        0.06710228323699421        0        
C4        C        0.53125        0.814814        0.06710228323699421        0        
C4        C        0.59375        0.814814        0.06710228323699421        0        
C4        C        0.65625        0.814814        0.06710228323699421        0        
C4        C        0.71875        0.814814        0.06710228323699421        0        
C4        C        0.78125        0.814814        0.06710228323699421        0        
C4        C        0.84375        0.814814        0.06710228323699421        0        
C4        C        0.9062500000000001        0.814814        0.06710228323699421        0        
C4        C        0.9687500000000001        0.814814        0.06710228323699421        0        
C1        C        0.0        0.907408        0.06710228323699421        0        
C1        C        0.0625        0.907408        0.06710228323699421        0        
C1        C        0.125        0.907408        0.06710228323699421        0        
C1        C        0.1875        0.907408        0.06710228323699421        0        
C1        C        0.25        0.907408        0.06710228323699421        0        
C1        C        0.3125        0.907408        0.06710228323699421        0        
C1        C        0.375        0.907408        0.06710228323699421        0        
C1        C        0.4375        0.907408        0.06710228323699421        0        
C1        C        0.5        0.907408        0.06710228323699421        0        
C1        C        0.5625        0.907408        0.06710228323699421        0        
C1        C        0.625        0.907408        0.06710228323699421        0        
C1        C        0.6875        0.907408        0.06710228323699421        0        
C1        C        0.75        0.907408        0.06710228323699421        0        
C1        C        0.8125        0.907408        0.06710228323699421        0        
C1        C        0.875        0.907408        0.06710228323699421        0        
C1        C        0.9375        0.907408        0.06710228323699421        0        
C2        C        0.03125        0.962963        0.06710228323699421        0        
C2        C        0.09375        0.962963        0.06710228323699421        0        
C2        C        0.15625        0.962963        0.06710228323699421        0        
C2        C        0.21875        0.962963        0.06710228323699421        0        
C2        C        0.28125        0.962963        0.06710228323699421        0        
C2        C        0.34375        0.962963        0.06710228323699421        0        
C2        C        0.40625        0.962963        0.06710228323699421        0        
C2        C        0.46875        0.962963        0.06710228323699421        0        
C2        C        0.53125        0.962963        0.06710228323699421        0        
C2        C        0.59375        0.962963        0.06710228323699421        0        
C2        C        0.65625        0.962963        0.06710228323699421        0        
C2        C        0.71875        0.962963        0.06710228323699421        0        
C2        C        0.78125        0.962963        0.06710228323699421        0        
C2        C        0.84375        0.962963        0.06710228323699421        0        
C2        C        0.9062500000000001        0.962963        0.06710228323699421        0        
C2        C        0.9687500000000001        0.962963        0.06710228323699421        0        
C3        C        0.0        0.9814809999999999        0.06710228323699421        0        
C3        C        0.0625        0.9814809999999999        0.06710228323699421        0        
C3        C        0.125        0.9814809999999999        0.06710228323699421        0        
C3        C        0.1875        0.9814809999999999        0.06710228323699421        0        
C3        C        0.25        0.9814809999999999        0.06710228323699421        0        
C3        C        0.3125        0.9814809999999999        0.06710228323699421        0        
C3        C        0.375        0.9814809999999999        0.06710228323699421        0        
C3        C        0.4375        0.9814809999999999        0.06710228323699421        0        
C3        C        0.5        0.9814809999999999        0.06710228323699421        0        
C3        C        0.5625        0.9814809999999999        0.06710228323699421        0        
C3        C        0.625        0.9814809999999999        0.06710228323699421        0        
C3        C        0.6875        0.9814809999999999        0.06710228323699421        0        
C3        C        0.75        0.9814809999999999        0.06710228323699421        0        
C3        C        0.8125        0.9814809999999999        0.06710228323699421        0        
C3        C        0.875        0.9814809999999999        0.06710228323699421        0        
C3        C        0.9375        0.9814809999999999        0.06710228323699421        0        
C4        C        0.03125        0.925925        0.06710228323699421        0        
C4        C        0.09375        0.925925        0.06710228323699421        0        
C4        C        0.15625        0.925925        0.06710228323699421        0        
C4        C        0.21875        0.925925        0.06710228323699421        0        
C4        C        0.28125        0.925925        0.06710228323699421        0        
C4        C        0.34375        0.925925        0.06710228323699421        0        
C4        C        0.40625        0.925925        0.06710228323699421        0        
C4        C        0.46875        0.925925        0.06710228323699421        0        
C4        C        0.53125        0.925925        0.06710228323699421        0        
C4        C        0.59375        0.925925        0.06710228323699421        0        
C4        C        0.65625        0.925925        0.06710228323699421        0        
C4        C        0.71875        0.925925        0.06710228323699421        0        
C4        C        0.78125        0.925925        0.06710228323699421        0        
C4        C        0.84375        0.925925        0.06710228323699421        0        
C4        C        0.9062500000000001        0.925925        0.06710228323699421        0        
C4        C        0.9687500000000001        0.925925        0.06710228323699421        0        
C1        C        0.0        0.018519        0.16392328323699423        0        
C2        C        0.03125        0.074075        0.16392328323699423        0        
C3        C        0.0        0.092592        0.16392328323699423        0        
C4        C        0.03125        0.037037        0.16392328323699423        0        
C1        C        0.0        0.12963        0.16392328323699423        0        
C2        C        0.03125        0.185185        0.16392328323699423        0        
C3        C        0.0        0.203703        0.16392328323699423        0        
C4        C        0.03125        0.148148        0.16392328323699423        0        
C1        C        0.0        0.24074099999999998        0.16392328323699423        0        
C2        C        0.03125        0.296297        0.16392328323699423        0        
C3        C        0.0        0.314815        0.16392328323699423        0        
C4        C        0.03125        0.259259        0.16392328323699423        0        
C1        C        0.0        0.351852        0.16392328323699423        0        
C2        C        0.03125        0.407408        0.16392328323699423        0        
C3        C        0.0        0.42592500000000005        0.16392328323699423        0        
C4        C        0.03125        0.37037        0.16392328323699423        0        
C1        C        0.0        0.46296300000000007        0.16392328323699423        0        
C2        C        0.03125        0.518519        0.16392328323699423        0        
C3        C        0.0        0.537037        0.16392328323699423        0        
C4        C        0.03125        0.481481        0.16392328323699423        0        
C1        C        0.0        0.574075        0.16392328323699423        0        
C2        C        0.03125        0.62963        0.16392328323699423        0        
C3        C        0.0        0.648148        0.16392328323699423        0        
C4        C        0.03125        0.592592        0.16392328323699423        0        
C1        C        0.0625        0.018519        0.16392328323699423        0        
C2        C        0.09375        0.074075        0.16392328323699423        0        
C3        C        0.0625        0.092592        0.16392328323699423        0        
C4        C        0.09375        0.037037        0.16392328323699423        0        
C1        C        0.0625        0.12963        0.16392328323699423        0        
C2        C        0.09375        0.185185        0.16392328323699423        0        
C3        C        0.0625        0.203703        0.16392328323699423        0        
C4        C        0.09375        0.148148        0.16392328323699423        0        
C1        C        0.0625        0.24074099999999998        0.16392328323699423        0        
C2        C        0.09375        0.296297        0.16392328323699423        0        
C3        C        0.0625        0.314815        0.16392328323699423        0        
C4        C        0.09375        0.259259        0.16392328323699423        0        
C1        C        0.0625        0.351852        0.16392328323699423        0        
C2        C        0.09375        0.407408        0.16392328323699423        0        
C3        C        0.0625        0.42592500000000005        0.16392328323699423        0        
C4        C        0.09375        0.37037        0.16392328323699423        0        
C1        C        0.0625        0.46296300000000007        0.16392328323699423        0        
C2        C        0.09375        0.518519        0.16392328323699423        0        
C3        C        0.0625        0.537037        0.16392328323699423        0        
C4        C        0.09375        0.481481        0.16392328323699423        0        
C1        C        0.0625        0.574075        0.16392328323699423        0        
C2        C        0.09375        0.62963        0.16392328323699423        0        
C3        C        0.0625        0.648148        0.16392328323699423        0        
C4        C        0.09375        0.592592        0.16392328323699423        0        
C1        C        0.125        0.018519        0.16392328323699423        0        
C2        C        0.15625        0.074075        0.16392328323699423        0        
C3        C        0.125        0.092592        0.16392328323699423        0        
C4        C        0.15625        0.037037        0.16392328323699423        0        
C1        C        0.125        0.12963        0.16392328323699423        0        
C2        C        0.15625        0.185185        0.16392328323699423        0        
C3        C        0.125        0.203703        0.16392328323699423        0        
C4        C        0.15625        0.148148        0.16392328323699423        0        
C1        C        0.125        0.24074099999999998        0.16392328323699423        0        
C2        C        0.15625        0.296297        0.16392328323699423        0        
C3        C        0.125        0.314815        0.16392328323699423        0        
C4        C        0.15625        0.259259        0.16392328323699423        0        
C1        C        0.125        0.351852        0.16392328323699423        0        
C2        C        0.15625        0.407408        0.16392328323699423        0        
C3        C        0.125        0.42592500000000005        0.16392328323699423        0        
C4        C        0.15625        0.37037        0.16392328323699423        0        
C1        C        0.125        0.46296300000000007        0.16392328323699423        0        
C2        C        0.15625        0.518519        0.16392328323699423        0        
C3        C        0.125        0.537037        0.16392328323699423        0        
C4        C        0.15625        0.481481        0.16392328323699423        0        
C1        C        0.125        0.574075        0.16392328323699423        0        
C2        C        0.15625        0.62963        0.16392328323699423        0        
C3        C        0.125        0.648148        0.16392328323699423        0        
C4        C        0.15625        0.592592        0.16392328323699423        0        
C1        C        0.1875        0.018519        0.16392328323699423        0        
C2        C        0.21875        0.074075        0.16392328323699423        0        
C3        C        0.1875        0.092592        0.16392328323699423        0        
C4        C        0.21875        0.037037        0.16392328323699423        0        
C1        C        0.1875        0.12963        0.16392328323699423        0        
C2        C        0.21875        0.185185        0.16392328323699423        0        
C3        C        0.1875        0.203703        0.16392328323699423        0        
C4        C        0.21875        0.148148        0.16392328323699423        0        
C1        C        0.1875        0.24074099999999998        0.16392328323699423        0        
C2        C        0.21875        0.296297        0.16392328323699423        0        
C3        C        0.1875        0.314815        0.16392328323699423        0        
C4        C        0.21875        0.259259        0.16392328323699423        0        
C1        C        0.1875        0.351852        0.16392328323699423        0        
C2        C        0.21875        0.407408        0.16392328323699423        0        
C3        C        0.1875        0.42592500000000005        0.16392328323699423        0        
C4        C        0.21875        0.37037        0.16392328323699423        0        
C1        C        0.1875        0.46296300000000007        0.16392328323699423        0        
C2        C        0.21875        0.518519        0.16392328323699423        0        
C3        C        0.1875        0.537037        0.16392328323699423        0        
C4        C        0.21875        0.481481        0.16392328323699423        0        
C1        C        0.1875        0.574075        0.16392328323699423        0        
C2        C        0.21875        0.62963        0.16392328323699423        0        
C3        C        0.1875        0.648148        0.16392328323699423        0        
C4        C        0.21875        0.592592        0.16392328323699423        0        
C1        C        0.25        0.018519        0.16392328323699423        0        
C2        C        0.28125        0.074075        0.16392328323699423        0        
C3        C        0.25        0.092592        0.16392328323699423        0        
C4        C        0.28125        0.037037        0.16392328323699423        0        
C1        C        0.25        0.12963        0.16392328323699423        0        
C2        C        0.28125        0.185185        0.16392328323699423        0        
C3        C        0.25        0.203703        0.16392328323699423        0        
C4        C        0.28125        0.148148        0.16392328323699423        0        
C1        C        0.25        0.24074099999999998        0.16392328323699423        0        
C2        C        0.28125        0.296297        0.16392328323699423        0        
C3        C        0.25        0.314815        0.16392328323699423        0        
C4        C        0.28125        0.259259        0.16392328323699423        0        
C1        C        0.25        0.351852        0.16392328323699423        0        
C2        C        0.28125        0.407408        0.16392328323699423        0        
C3        C        0.25        0.42592500000000005        0.16392328323699423        0        
C4        C        0.28125        0.37037        0.16392328323699423        0        
C1        C        0.25        0.46296300000000007        0.16392328323699423        0        
C2        C        0.28125        0.518519        0.16392328323699423        0        
C3        C        0.25        0.537037        0.16392328323699423        0        
C4        C        0.28125        0.481481        0.16392328323699423        0        
C1        C        0.25        0.574075        0.16392328323699423        0        
C2        C        0.28125        0.62963        0.16392328323699423        0        
C3        C        0.25        0.648148        0.16392328323699423        0        
C4        C        0.28125        0.592592        0.16392328323699423        0        
C1        C        0.3125        0.018519        0.16392328323699423        0        
C2        C        0.34375        0.074075        0.16392328323699423        0        
C3        C        0.3125        0.092592        0.16392328323699423        0        
C4        C        0.34375        0.037037        0.16392328323699423        0        
C1        C        0.3125        0.12963        0.16392328323699423        0        
C2        C        0.34375        0.185185        0.16392328323699423        0        
C3        C        0.3125        0.203703        0.16392328323699423        0        
C4        C        0.34375        0.148148        0.16392328323699423        0        
C1        C        0.3125        0.24074099999999998        0.16392328323699423        0        
C2        C        0.34375        0.296297        0.16392328323699423        0        
C3        C        0.3125        0.314815        0.16392328323699423        0        
C4        C        0.34375        0.259259        0.16392328323699423        0        
C1        C        0.3125        0.351852        0.16392328323699423        0        
C2        C        0.34375        0.407408        0.16392328323699423        0        
C3        C        0.3125        0.42592500000000005        0.16392328323699423        0        
C4        C        0.34375        0.37037        0.16392328323699423        0        
C1        C        0.3125        0.46296300000000007        0.16392328323699423        0        
C2        C        0.34375        0.518519        0.16392328323699423        0        
C3        C        0.3125        0.537037        0.16392328323699423        0        
C4        C        0.34375        0.481481        0.16392328323699423        0        
C1        C        0.3125        0.574075        0.16392328323699423        0        
C2        C        0.34375        0.62963        0.16392328323699423        0        
C3        C        0.3125        0.648148        0.16392328323699423        0        
C4        C        0.34375        0.592592        0.16392328323699423        0        
C1        C        0.375        0.018519        0.16392328323699423        0        
C2        C        0.40625        0.074075        0.16392328323699423        0        
C3        C        0.375        0.092592        0.16392328323699423        0        
C4        C        0.40625        0.037037        0.16392328323699423        0        
C1        C        0.375        0.12963        0.16392328323699423        0        
C2        C        0.40625        0.185185        0.16392328323699423        0        
C3        C        0.375        0.203703        0.16392328323699423        0        
C4        C        0.40625        0.148148        0.16392328323699423        0        
C1        C        0.375        0.24074099999999998        0.16392328323699423        0        
C2        C        0.40625        0.296297        0.16392328323699423        0        
C3        C        0.375        0.314815        0.16392328323699423        0        
C4        C        0.40625        0.259259        0.16392328323699423        0        
C1        C        0.375        0.351852        0.16392328323699423        0        
C2        C        0.40625        0.407408        0.16392328323699423        0        
C3        C        0.375        0.42592500000000005        0.16392328323699423        0        
C4        C        0.40625        0.37037        0.16392328323699423        0        
C1        C        0.375        0.46296300000000007        0.16392328323699423        0        
C2        C        0.40625        0.518519        0.16392328323699423        0        
C3        C        0.375        0.537037        0.16392328323699423        0        
C4        C        0.40625        0.481481        0.16392328323699423        0        
C1        C        0.375        0.574075        0.16392328323699423        0        
C2        C        0.40625        0.62963        0.16392328323699423        0        
C3        C        0.375        0.648148        0.16392328323699423        0        
C4        C        0.40625        0.592592        0.16392328323699423        0        
C1        C        0.4375        0.018519        0.16392328323699423        0        
C2        C        0.46875        0.074075        0.16392328323699423        0        
C3        C        0.4375        0.092592        0.16392328323699423        0        
C4        C        0.46875        0.037037        0.16392328323699423        0        
C1        C        0.4375        0.12963        0.16392328323699423        0        
C2        C        0.46875        0.185185        0.16392328323699423        0        
C3        C        0.4375        0.203703        0.16392328323699423        0        
C4        C        0.46875        0.148148        0.16392328323699423        0        
C1        C        0.4375        0.24074099999999998        0.16392328323699423        0        
C2        C        0.46875        0.296297        0.16392328323699423        0        
C3        C        0.4375        0.314815        0.16392328323699423        0        
C4        C        0.46875        0.259259        0.16392328323699423        0        
C1        C        0.4375        0.351852        0.16392328323699423        0        
C2        C        0.46875        0.407408        0.16392328323699423        0        
C3        C        0.4375        0.42592500000000005        0.16392328323699423        0        
C4        C        0.46875        0.37037        0.16392328323699423        0        
C1        C        0.4375        0.46296300000000007        0.16392328323699423        0        
C2        C        0.46875        0.518519        0.16392328323699423        0        
C3        C        0.4375        0.537037        0.16392328323699423        0        
C4        C        0.46875        0.481481        0.16392328323699423        0        
C1        C        0.4375        0.574075        0.16392328323699423        0        
C2        C        0.46875        0.62963        0.16392328323699423        0        
C3        C        0.4375        0.648148        0.16392328323699423        0        
C4        C        0.46875        0.592592        0.16392328323699423        0        
C1        C        0.5        0.018519        0.16392328323699423        0        
C2        C        0.53125        0.074075        0.16392328323699423        0        
C3        C        0.5        0.092592        0.16392328323699423        0        
C4        C        0.53125        0.037037        0.16392328323699423        0        
C1        C        0.5        0.12963        0.16392328323699423        0        
C2        C        0.53125        0.185185        0.16392328323699423        0        
C3        C        0.5        0.203703        0.16392328323699423        0        
C4        C        0.53125        0.148148        0.16392328323699423        0        
C1        C        0.5        0.24074099999999998        0.16392328323699423        0        
C2        C        0.53125        0.296297        0.16392328323699423        0        
C3        C        0.5        0.314815        0.16392328323699423        0        
C4        C        0.53125        0.259259        0.16392328323699423        0        
C1        C        0.5        0.351852        0.16392328323699423        0        
C2        C        0.53125        0.407408        0.16392328323699423        0        
C3        C        0.5        0.42592500000000005        0.16392328323699423        0        
C4        C        0.53125        0.37037        0.16392328323699423        0        
C1        C        0.5        0.46296300000000007        0.16392328323699423        0        
C2        C        0.53125        0.518519        0.16392328323699423        0        
C3        C        0.5        0.537037        0.16392328323699423        0        
C4        C        0.53125        0.481481        0.16392328323699423        0        
C1        C        0.5        0.574075        0.16392328323699423        0        
C2        C        0.53125        0.62963        0.16392328323699423        0        
C3        C        0.5        0.648148        0.16392328323699423        0        
C4        C        0.53125        0.592592        0.16392328323699423        0        
C1        C        0.5625        0.018519        0.16392328323699423        0        
C2        C        0.59375        0.074075        0.16392328323699423        0        
C3        C        0.5625        0.092592        0.16392328323699423        0        
C4        C        0.59375        0.037037        0.16392328323699423        0        
C1        C        0.5625        0.12963        0.16392328323699423        0        
C2        C        0.59375        0.185185        0.16392328323699423        0        
C3        C        0.5625        0.203703        0.16392328323699423        0        
C4        C        0.59375        0.148148        0.16392328323699423        0        
C1        C        0.5625        0.24074099999999998        0.16392328323699423        0        
C2        C        0.59375        0.296297        0.16392328323699423        0        
C3        C        0.5625        0.314815        0.16392328323699423        0        
C4        C        0.59375        0.259259        0.16392328323699423        0        
C1        C        0.5625        0.351852        0.16392328323699423        0        
C2        C        0.59375        0.407408        0.16392328323699423        0        
C3        C        0.5625        0.42592500000000005        0.16392328323699423        0        
C4        C        0.59375        0.37037        0.16392328323699423        0        
C1        C        0.5625        0.46296300000000007        0.16392328323699423        0        
C2        C        0.59375        0.518519        0.16392328323699423        0        
C3        C        0.5625        0.537037        0.16392328323699423        0        
C4        C        0.59375        0.481481        0.16392328323699423        0        
C1        C        0.5625        0.574075        0.16392328323699423        0        
C2        C        0.59375        0.62963        0.16392328323699423        0        
C3        C        0.5625        0.648148        0.16392328323699423        0        
C4        C        0.59375        0.592592        0.16392328323699423        0        
C1        C        0.625        0.018519        0.16392328323699423        0        
C2        C        0.65625        0.074075        0.16392328323699423        0        
C3        C        0.625        0.092592        0.16392328323699423        0        
C4        C        0.65625        0.037037        0.16392328323699423        0        
C1        C        0.625        0.12963        0.16392328323699423        0        
C2        C        0.65625        0.185185        0.16392328323699423        0        
C3        C        0.625        0.203703        0.16392328323699423        0        
C4        C        0.65625        0.148148        0.16392328323699423        0        
C1        C        0.625        0.24074099999999998        0.16392328323699423        0        
C2        C        0.65625        0.296297        0.16392328323699423        0        
C3        C        0.625        0.314815        0.16392328323699423        0        
C4        C        0.65625        0.259259        0.16392328323699423        0        
C1        C        0.625        0.351852        0.16392328323699423        0        
C2        C        0.65625        0.407408        0.16392328323699423        0        
C3        C        0.625        0.42592500000000005        0.16392328323699423        0        
C4        C        0.65625        0.37037        0.16392328323699423        0        
C1        C        0.625        0.46296300000000007        0.16392328323699423        0        
C2        C        0.65625        0.518519        0.16392328323699423        0        
C3        C        0.625        0.537037        0.16392328323699423        0        
C4        C        0.65625        0.481481        0.16392328323699423        0        
C1        C        0.625        0.574075        0.16392328323699423        0        
C2        C        0.65625        0.62963        0.16392328323699423        0        
C3        C        0.625        0.648148        0.16392328323699423        0        
C4        C        0.65625        0.592592        0.16392328323699423        0        
C1        C        0.6875        0.018519        0.16392328323699423        0        
C2        C        0.71875        0.074075        0.16392328323699423        0        
C3        C        0.6875        0.092592        0.16392328323699423        0        
C4        C        0.71875        0.037037        0.16392328323699423        0        
C1        C        0.6875        0.12963        0.16392328323699423        0        
C2        C        0.71875        0.185185        0.16392328323699423        0        
C3        C        0.6875        0.203703        0.16392328323699423        0        
C4        C        0.71875        0.148148        0.16392328323699423        0        
C1        C        0.6875        0.24074099999999998        0.16392328323699423        0        
C2        C        0.71875        0.296297        0.16392328323699423        0        
C3        C        0.6875        0.314815        0.16392328323699423        0        
C4        C        0.71875        0.259259        0.16392328323699423        0        
C1        C        0.6875        0.351852        0.16392328323699423        0        
C2        C        0.71875        0.407408        0.16392328323699423        0        
C3        C        0.6875        0.42592500000000005        0.16392328323699423        0        
C4        C        0.71875        0.37037        0.16392328323699423        0        
C1        C        0.6875        0.46296300000000007        0.16392328323699423        0        
C2        C        0.71875        0.518519        0.16392328323699423        0        
C3        C        0.6875        0.537037        0.16392328323699423        0        
C4        C        0.71875        0.481481        0.16392328323699423        0        
C1        C        0.6875        0.574075        0.16392328323699423        0        
C2        C        0.71875        0.62963        0.16392328323699423        0        
C3        C        0.6875        0.648148        0.16392328323699423        0        
C4        C        0.71875        0.592592        0.16392328323699423        0        
C1        C        0.75        0.018519        0.16392328323699423        0        
C2        C        0.78125        0.074075        0.16392328323699423        0        
C3        C        0.75        0.092592        0.16392328323699423        0        
C4        C        0.78125        0.037037        0.16392328323699423        0        
C1        C        0.75        0.12963        0.16392328323699423        0        
C2        C        0.78125        0.185185        0.16392328323699423        0        
C3        C        0.75        0.203703        0.16392328323699423        0        
C4        C        0.78125        0.148148        0.16392328323699423        0        
C1        C        0.75        0.24074099999999998        0.16392328323699423        0        
C2        C        0.78125        0.296297        0.16392328323699423        0        
C3        C        0.75        0.314815        0.16392328323699423        0        
C4        C        0.78125        0.259259        0.16392328323699423        0        
C1        C        0.75        0.351852        0.16392328323699423        0        
C2        C        0.78125        0.407408        0.16392328323699423        0        
C3        C        0.75        0.42592500000000005        0.16392328323699423        0        
C4        C        0.78125        0.37037        0.16392328323699423        0        
C1        C        0.75        0.46296300000000007        0.16392328323699423        0        
C2        C        0.78125        0.518519        0.16392328323699423        0        
C3        C        0.75        0.537037        0.16392328323699423        0        
C4        C        0.78125        0.481481        0.16392328323699423        0        
C1        C        0.75        0.574075        0.16392328323699423        0        
C2        C        0.78125        0.62963        0.16392328323699423        0        
C3        C        0.75        0.648148        0.16392328323699423        0        
C4        C        0.78125        0.592592        0.16392328323699423        0        
C1        C        0.8125        0.018519        0.16392328323699423        0        
C2        C        0.84375        0.074075        0.16392328323699423        0        
C3        C        0.8125        0.092592        0.16392328323699423        0        
C4        C        0.84375        0.037037        0.16392328323699423        0        
C1        C        0.8125        0.12963        0.16392328323699423        0        
C2        C        0.84375        0.185185        0.16392328323699423        0        
C3        C        0.8125        0.203703        0.16392328323699423        0        
C4        C        0.84375        0.148148        0.16392328323699423        0        
C1        C        0.8125        0.24074099999999998        0.16392328323699423        0        
C2        C        0.84375        0.296297        0.16392328323699423        0        
C3        C        0.8125        0.314815        0.16392328323699423        0        
C4        C        0.84375        0.259259        0.16392328323699423        0        
C1        C        0.8125        0.351852        0.16392328323699423        0        
C2        C        0.84375        0.407408        0.16392328323699423        0        
C3        C        0.8125        0.42592500000000005        0.16392328323699423        0        
C4        C        0.84375        0.37037        0.16392328323699423        0        
C1        C        0.8125        0.46296300000000007        0.16392328323699423        0        
C2        C        0.84375        0.518519        0.16392328323699423        0        
C3        C        0.8125        0.537037        0.16392328323699423        0        
C4        C        0.84375        0.481481        0.16392328323699423        0        
C1        C        0.8125        0.574075        0.16392328323699423        0        
C2        C        0.84375        0.62963        0.16392328323699423        0        
C3        C        0.8125        0.648148        0.16392328323699423        0        
C4        C        0.84375        0.592592        0.16392328323699423        0        
C1        C        0.875        0.018519        0.16392328323699423        0        
C2        C        0.9062500000000001        0.074075        0.16392328323699423        0        
C3        C        0.875        0.092592        0.16392328323699423        0        
C4        C        0.9062500000000001        0.037037        0.16392328323699423        0        
C1        C        0.875        0.12963        0.16392328323699423        0        
C2        C        0.9062500000000001        0.185185        0.16392328323699423        0        
C3        C        0.875        0.203703        0.16392328323699423        0        
C4        C        0.9062500000000001        0.148148        0.16392328323699423        0        
C1        C        0.875        0.24074099999999998        0.16392328323699423        0        
C2        C        0.9062500000000001        0.296297        0.16392328323699423        0        
C3        C        0.875        0.314815        0.16392328323699423        0        
C4        C        0.9062500000000001        0.259259        0.16392328323699423        0        
C1        C        0.875        0.351852        0.16392328323699423        0        
C2        C        0.9062500000000001        0.407408        0.16392328323699423        0        
C3        C        0.875        0.42592500000000005        0.16392328323699423        0        
C4        C        0.9062500000000001        0.37037        0.16392328323699423        0        
C1        C        0.875        0.46296300000000007        0.16392328323699423        0        
C2        C        0.9062500000000001        0.518519        0.16392328323699423        0        
C3        C        0.875        0.537037        0.16392328323699423        0        
C4        C        0.9062500000000001        0.481481        0.16392328323699423        0        
C1        C        0.875        0.574075        0.16392328323699423        0        
C2        C        0.9062500000000001        0.62963        0.16392328323699423        0        
C3        C        0.875        0.648148        0.16392328323699423        0        
C4        C        0.9062500000000001        0.592592        0.16392328323699423        0        
C1        C        0.9375        0.018519        0.16392328323699423        0        
C2        C        0.9687500000000001        0.074075        0.16392328323699423        0        
C3        C        0.9375        0.092592        0.16392328323699423        0        
C4        C        0.9687500000000001        0.037037        0.16392328323699423        0        
C1        C        0.9375        0.12963        0.16392328323699423        0        
C2        C        0.9687500000000001        0.185185        0.16392328323699423        0        
C3        C        0.9375        0.203703        0.16392328323699423        0        
C4        C        0.9687500000000001        0.148148        0.16392328323699423        0        
C1        C        0.9375        0.24074099999999998        0.16392328323699423        0        
C2        C        0.9687500000000001        0.296297        0.16392328323699423        0        
C3        C        0.9375        0.314815        0.16392328323699423        0        
C4        C        0.9687500000000001        0.259259        0.16392328323699423        0        
C1        C        0.9375        0.351852        0.16392328323699423        0        
C2        C        0.9687500000000001        0.407408        0.16392328323699423        0        
C3        C        0.9375        0.42592500000000005        0.16392328323699423        0        
C4        C        0.9687500000000001        0.37037        0.16392328323699423        0        
C1        C        0.9375        0.46296300000000007        0.16392328323699423        0        
C2        C        0.9687500000000001        0.518519        0.16392328323699423        0        
C3        C        0.9375        0.537037        0.16392328323699423        0        
C4        C        0.9687500000000001        0.481481        0.16392328323699423        0        
C1        C        0.9375        0.574075        0.16392328323699423        0        
C2        C        0.9687500000000001        0.62963        0.16392328323699423        0        
C3        C        0.9375        0.648148        0.16392328323699423        0        
C4        C        0.9687500000000001        0.592592        0.16392328323699423        0        
C1        C        0.0        0.685186        0.16392328323699423        0        
C1        C        0.0625        0.685186        0.16392328323699423        0        
C1        C        0.125        0.685186        0.16392328323699423        0        
C1        C        0.1875        0.685186        0.16392328323699423        0        
C1        C        0.25        0.685186        0.16392328323699423        0        
C1        C        0.3125        0.685186        0.16392328323699423        0        
C1        C        0.375        0.685186        0.16392328323699423        0        
C1        C        0.4375        0.685186        0.16392328323699423        0        
C1        C        0.5        0.685186        0.16392328323699423        0        
C1        C        0.5625        0.685186        0.16392328323699423        0        
C1        C        0.625        0.685186        0.16392328323699423        0        
C1        C        0.6875        0.685186        0.16392328323699423        0        
C1        C        0.75        0.685186        0.16392328323699423        0        
C1        C        0.8125        0.685186        0.16392328323699423        0        
C1        C        0.875        0.685186        0.16392328323699423        0        
C1        C        0.9375        0.685186        0.16392328323699423        0        
C2        C        0.03125        0.740741        0.16392328323699423        0        
C2        C        0.09375        0.740741        0.16392328323699423        0        
C2        C        0.15625        0.740741        0.16392328323699423        0        
C2        C        0.21875        0.740741        0.16392328323699423        0        
C2        C        0.28125        0.740741        0.16392328323699423        0        
C2        C        0.34375        0.740741        0.16392328323699423        0        
C2        C        0.40625        0.740741        0.16392328323699423        0        
C2        C        0.46875        0.740741        0.16392328323699423        0        
C2        C        0.53125        0.740741        0.16392328323699423        0        
C2        C        0.59375        0.740741        0.16392328323699423        0        
C2        C        0.65625        0.740741        0.16392328323699423        0        
C2        C        0.71875        0.740741        0.16392328323699423        0        
C2        C        0.78125        0.740741        0.16392328323699423        0        
C2        C        0.84375        0.740741        0.16392328323699423        0        
C2        C        0.9062500000000001        0.740741        0.16392328323699423        0        
C2        C        0.9687500000000001        0.740741        0.16392328323699423        0        
C3        C        0.0        0.759259        0.16392328323699423        0        
C3        C        0.0625        0.759259        0.16392328323699423        0        
C3        C        0.125        0.759259        0.16392328323699423        0        
C3        C        0.1875        0.759259        0.16392328323699423        0        
C3        C        0.25        0.759259        0.16392328323699423        0        
C3        C        0.3125        0.759259        0.16392328323699423        0        
C3        C        0.375        0.759259        0.16392328323699423        0        
C3        C        0.4375        0.759259        0.16392328323699423        0        
C3        C        0.5        0.759259        0.16392328323699423        0        
C3        C        0.5625        0.759259        0.16392328323699423        0        
C3        C        0.625        0.759259        0.16392328323699423        0        
C3        C        0.6875        0.759259        0.16392328323699423        0        
C3        C        0.75        0.759259        0.16392328323699423        0        
C3        C        0.8125        0.759259        0.16392328323699423        0        
C3        C        0.875        0.759259        0.16392328323699423        0        
C3        C        0.9375        0.759259        0.16392328323699423        0        
C4        C        0.03125        0.703703        0.16392328323699423        0        
C4        C        0.09375        0.703703        0.16392328323699423        0        
C4        C        0.15625        0.703703        0.16392328323699423        0        
C4        C        0.21875        0.703703        0.16392328323699423        0        
C4        C        0.28125        0.703703        0.16392328323699423        0        
C4        C        0.34375        0.703703        0.16392328323699423        0        
C4        C        0.40625        0.703703        0.16392328323699423        0        
C4        C        0.46875        0.703703        0.16392328323699423        0        
C4        C        0.53125        0.703703        0.16392328323699423        0        
C4        C        0.59375        0.703703        0.16392328323699423        0        
C4        C        0.65625        0.703703        0.16392328323699423        0        
C4        C        0.71875        0.703703        0.16392328323699423        0        
C4        C        0.78125        0.703703        0.16392328323699423        0        
C4        C        0.84375        0.703703        0.16392328323699423        0        
C4        C        0.9062500000000001        0.703703        0.16392328323699423        0        
C4        C        0.9687500000000001        0.703703        0.16392328323699423        0        
C1        C        0.0        0.796297        0.16392328323699423        0        
C1        C        0.0625        0.796297        0.16392328323699423        0        
C1        C        0.125        0.796297        0.16392328323699423        0        
C1        C        0.1875        0.796297        0.16392328323699423        0        
C1        C        0.25        0.796297        0.16392328323699423        0        
C1        C        0.3125        0.796297        0.16392328323699423        0        
C1        C        0.375        0.796297        0.16392328323699423        0        
C1        C        0.4375        0.796297        0.16392328323699423        0        
C1        C        0.5        0.796297        0.16392328323699423        0        
C1        C        0.5625        0.796297        0.16392328323699423        0        
C1        C        0.625        0.796297        0.16392328323699423        0        
C1        C        0.6875        0.796297        0.16392328323699423        0        
C1        C        0.75        0.796297        0.16392328323699423        0        
C1        C        0.8125        0.796297        0.16392328323699423        0        
C1        C        0.875        0.796297        0.16392328323699423        0        
C1        C        0.9375        0.796297        0.16392328323699423        0        
C2        C        0.03125        0.851852        0.16392328323699423        0        
C2        C        0.09375        0.851852        0.16392328323699423        0        
C2        C        0.15625        0.851852        0.16392328323699423        0        
C2        C        0.21875        0.851852        0.16392328323699423        0        
C2        C        0.28125        0.851852        0.16392328323699423        0        
C2        C        0.34375        0.851852        0.16392328323699423        0        
C2        C        0.40625        0.851852        0.16392328323699423        0        
C2        C        0.46875        0.851852        0.16392328323699423        0        
C2        C        0.53125        0.851852        0.16392328323699423        0        
C2        C        0.59375        0.851852        0.16392328323699423        0        
C2        C        0.65625        0.851852        0.16392328323699423        0        
C2        C        0.71875        0.851852        0.16392328323699423        0        
C2        C        0.78125        0.851852        0.16392328323699423        0        
C2        C        0.84375        0.851852        0.16392328323699423        0        
C2        C        0.9062500000000001        0.851852        0.16392328323699423        0        
C2        C        0.9687500000000001        0.851852        0.16392328323699423        0        
C3        C        0.0        0.87037        0.16392328323699423        0        
C3        C        0.0625        0.87037        0.16392328323699423        0        
C3        C        0.125        0.87037        0.16392328323699423        0        
C3        C        0.1875        0.87037        0.16392328323699423        0        
C3        C        0.25        0.87037        0.16392328323699423        0        
C3        C        0.3125        0.87037        0.16392328323699423        0        
C3        C        0.375        0.87037        0.16392328323699423        0        
C3        C        0.4375        0.87037        0.16392328323699423        0        
C3        C        0.5        0.87037        0.16392328323699423        0        
C3        C        0.5625        0.87037        0.16392328323699423        0        
C3        C        0.625        0.87037        0.16392328323699423        0        
C3        C        0.6875        0.87037        0.16392328323699423        0        
C3        C        0.75        0.87037        0.16392328323699423        0        
C3        C        0.8125        0.87037        0.16392328323699423        0        
C3        C        0.875        0.87037        0.16392328323699423        0        
C3        C        0.9375        0.87037        0.16392328323699423        0        
C4        C        0.03125        0.814814        0.16392328323699423        0        
C4        C        0.09375        0.814814        0.16392328323699423        0        
C4        C        0.15625        0.814814        0.16392328323699423        0        
C4        C        0.21875        0.814814        0.16392328323699423        0        
C4        C        0.28125        0.814814        0.16392328323699423        0        
C4        C        0.34375        0.814814        0.16392328323699423        0        
C4        C        0.40625        0.814814        0.16392328323699423        0        
C4        C        0.46875        0.814814        0.16392328323699423        0        
C4        C        0.53125        0.814814        0.16392328323699423        0        
C4        C        0.59375        0.814814        0.16392328323699423        0        
C4        C        0.65625        0.814814        0.16392328323699423        0        
C4        C        0.71875        0.814814        0.16392328323699423        0        
C4        C        0.78125        0.814814        0.16392328323699423        0        
C4        C        0.84375        0.814814        0.16392328323699423        0        
C4        C        0.9062500000000001        0.814814        0.16392328323699423        0        
C4        C        0.9687500000000001        0.814814        0.16392328323699423        0        
C1        C        0.0        0.907408        0.16392328323699423        0        
C1        C        0.0625        0.907408        0.16392328323699423        0        
C1        C        0.125        0.907408        0.16392328323699423        0        
C1        C        0.1875        0.907408        0.16392328323699423        0        
C1        C        0.25        0.907408        0.16392328323699423        0        
C1        C        0.3125        0.907408        0.16392328323699423        0        
C1        C        0.375        0.907408        0.16392328323699423        0        
C1        C        0.4375        0.907408        0.16392328323699423        0        
C1        C        0.5        0.907408        0.16392328323699423        0        
C1        C        0.5625        0.907408        0.16392328323699423        0        
C1        C        0.625        0.907408        0.16392328323699423        0        
C1        C        0.6875        0.907408        0.16392328323699423        0        
C1        C        0.75        0.907408        0.16392328323699423        0        
C1        C        0.8125        0.907408        0.16392328323699423        0        
C1        C        0.875        0.907408        0.16392328323699423        0        
C1        C        0.9375        0.907408        0.16392328323699423        0        
C2        C        0.03125        0.962963        0.16392328323699423        0        
C2        C        0.09375        0.962963        0.16392328323699423        0        
C2        C        0.15625        0.962963        0.16392328323699423        0        
C2        C        0.21875        0.962963        0.16392328323699423        0        
C2        C        0.28125        0.962963        0.16392328323699423        0        
C2        C        0.34375        0.962963        0.16392328323699423        0        
C2        C        0.40625        0.962963        0.16392328323699423        0        
C2        C        0.46875        0.962963        0.16392328323699423        0        
C2        C        0.53125        0.962963        0.16392328323699423        0        
C2        C        0.59375        0.962963        0.16392328323699423        0        
C2        C        0.65625        0.962963        0.16392328323699423        0        
C2        C        0.71875        0.962963        0.16392328323699423        0        
C2        C        0.78125        0.962963        0.16392328323699423        0        
C2        C        0.84375        0.962963        0.16392328323699423        0        
C2        C        0.9062500000000001        0.962963        0.16392328323699423        0        
C2        C        0.9687500000000001        0.962963        0.16392328323699423        0        
C3        C        0.0        0.9814809999999999        0.16392328323699423        0        
C3        C        0.0625        0.9814809999999999        0.16392328323699423        0        
C3        C        0.125        0.9814809999999999        0.16392328323699423        0        
C3        C        0.1875        0.9814809999999999        0.16392328323699423        0        
C3        C        0.25        0.9814809999999999        0.16392328323699423        0        
C3        C        0.3125        0.9814809999999999        0.16392328323699423        0        
C3        C        0.375        0.9814809999999999        0.16392328323699423        0        
C3        C        0.4375        0.9814809999999999        0.16392328323699423        0        
C3        C        0.5        0.9814809999999999        0.16392328323699423        0        
C3        C        0.5625        0.9814809999999999        0.16392328323699423        0        
C3        C        0.625        0.9814809999999999        0.16392328323699423        0        
C3        C        0.6875        0.9814809999999999        0.16392328323699423        0        
C3        C        0.75        0.9814809999999999        0.16392328323699423        0        
C3        C        0.8125        0.9814809999999999        0.16392328323699423        0        
C3        C        0.875        0.9814809999999999        0.16392328323699423        0        
C3        C        0.9375        0.9814809999999999        0.16392328323699423        0        
C4        C        0.03125        0.925925        0.16392328323699423        0        
C4        C        0.09375        0.925925        0.16392328323699423        0        
C4        C        0.15625        0.925925        0.16392328323699423        0        
C4        C        0.21875        0.925925        0.16392328323699423        0        
C4        C        0.28125        0.925925        0.16392328323699423        0        
C4        C        0.34375        0.925925        0.16392328323699423        0        
C4        C        0.40625        0.925925        0.16392328323699423        0        
C4        C        0.46875        0.925925        0.16392328323699423        0        
C4        C        0.53125        0.925925        0.16392328323699423        0        
C4        C        0.59375        0.925925        0.16392328323699423        0        
C4        C        0.65625        0.925925        0.16392328323699423        0        
C4        C        0.71875        0.925925        0.16392328323699423        0        
C4        C        0.78125        0.925925        0.16392328323699423        0        
C4        C        0.84375        0.925925        0.16392328323699423        0        
C4        C        0.9062500000000001        0.925925        0.16392328323699423        0        
C4        C        0.9687500000000001        0.925925        0.16392328323699423        0        
C1        C        0.0        0.018519        0.2607442832369943        0        
C2        C        0.03125        0.074075        0.2607442832369943        0        
C3        C        0.0        0.092592        0.2607442832369943        0        
C4        C        0.03125        0.037037        0.2607442832369943        0        
C1        C        0.0        0.12963        0.2607442832369943        0        
C2        C        0.03125        0.185185        0.2607442832369943        0        
C3        C        0.0        0.203703        0.2607442832369943        0        
C4        C        0.03125        0.148148        0.2607442832369943        0        
C1        C        0.0        0.24074099999999998        0.2607442832369943        0        
C2        C        0.03125        0.296297        0.2607442832369943        0        
C3        C        0.0        0.314815        0.2607442832369943        0        
C4        C        0.03125        0.259259        0.2607442832369943        0        
C1        C        0.0        0.351852        0.2607442832369943        0        
C2        C        0.03125        0.407408        0.2607442832369943        0        
C3        C        0.0        0.42592500000000005        0.2607442832369943        0        
C4        C        0.03125        0.37037        0.2607442832369943        0        
C1        C        0.0        0.46296300000000007        0.2607442832369943        0        
C2        C        0.03125        0.518519        0.2607442832369943        0        
C3        C        0.0        0.537037        0.2607442832369943        0        
C4        C        0.03125        0.481481        0.2607442832369943        0        
C1        C        0.0        0.574075        0.2607442832369943        0        
C2        C        0.03125        0.62963        0.2607442832369943        0        
C3        C        0.0        0.648148        0.2607442832369943        0        
C4        C        0.03125        0.592592        0.2607442832369943        0        
C1        C        0.0625        0.018519        0.2607442832369943        0        
C2        C        0.09375        0.074075        0.2607442832369943        0        
C3        C        0.0625        0.092592        0.2607442832369943        0        
C4        C        0.09375        0.037037        0.2607442832369943        0        
C1        C        0.0625        0.12963        0.2607442832369943        0        
C2        C        0.09375        0.185185        0.2607442832369943        0        
C3        C        0.0625        0.203703        0.2607442832369943        0        
C4        C        0.09375        0.148148        0.2607442832369943        0        
C1        C        0.0625        0.24074099999999998        0.2607442832369943        0        
C2        C        0.09375        0.296297        0.2607442832369943        0        
C3        C        0.0625        0.314815        0.2607442832369943        0        
C4        C        0.09375        0.259259        0.2607442832369943        0        
C1        C        0.0625        0.351852        0.2607442832369943        0        
C2        C        0.09375        0.407408        0.2607442832369943        0        
C3        C        0.0625        0.42592500000000005        0.2607442832369943        0        
C4        C        0.09375        0.37037        0.2607442832369943        0        
C1        C        0.0625        0.46296300000000007        0.2607442832369943        0        
C2        C        0.09375        0.518519        0.2607442832369943        0        
C3        C        0.0625        0.537037        0.2607442832369943        0        
C4        C        0.09375        0.481481        0.2607442832369943        0        
C1        C        0.0625        0.574075        0.2607442832369943        0        
C2        C        0.09375        0.62963        0.2607442832369943        0        
C3        C        0.0625        0.648148        0.2607442832369943        0        
C4        C        0.09375        0.592592        0.2607442832369943        0        
C1        C        0.125        0.018519        0.2607442832369943        0        
C2        C        0.15625        0.074075        0.2607442832369943        0        
C3        C        0.125        0.092592        0.2607442832369943        0        
C4        C        0.15625        0.037037        0.2607442832369943        0        
C1        C        0.125        0.12963        0.2607442832369943        0        
C2        C        0.15625        0.185185        0.2607442832369943        0        
C3        C        0.125        0.203703        0.2607442832369943        0        
C4        C        0.15625        0.148148        0.2607442832369943        0        
C1        C        0.125        0.24074099999999998        0.2607442832369943        0        
C2        C        0.15625        0.296297        0.2607442832369943        0        
C3        C        0.125        0.314815        0.2607442832369943        0        
C4        C        0.15625        0.259259        0.2607442832369943        0        
C1        C        0.125        0.351852        0.2607442832369943        0        
C2        C        0.15625        0.407408        0.2607442832369943        0        
C3        C        0.125        0.42592500000000005        0.2607442832369943        0        
C4        C        0.15625        0.37037        0.2607442832369943        0        
C1        C        0.125        0.46296300000000007        0.2607442832369943        0        
C2        C        0.15625        0.518519        0.2607442832369943        0        
C3        C        0.125        0.537037        0.2607442832369943        0        
C4        C        0.15625        0.481481        0.2607442832369943        0        
C1        C        0.125        0.574075        0.2607442832369943        0        
C2        C        0.15625        0.62963        0.2607442832369943        0        
C3        C        0.125        0.648148        0.2607442832369943        0        
C4        C        0.15625        0.592592        0.2607442832369943        0        
C1        C        0.1875        0.018519        0.2607442832369943        0        
C2        C        0.21875        0.074075        0.2607442832369943        0        
C3        C        0.1875        0.092592        0.2607442832369943        0        
C4        C        0.21875        0.037037        0.2607442832369943        0        
C1        C        0.1875        0.12963        0.2607442832369943        0        
C2        C        0.21875        0.185185        0.2607442832369943        0        
C3        C        0.1875        0.203703        0.2607442832369943        0        
C4        C        0.21875        0.148148        0.2607442832369943        0        
C1        C        0.1875        0.24074099999999998        0.2607442832369943        0        
C2        C        0.21875        0.296297        0.2607442832369943        0        
C3        C        0.1875        0.314815        0.2607442832369943        0        
C4        C        0.21875        0.259259        0.2607442832369943        0        
C1        C        0.1875        0.351852        0.2607442832369943        0        
C2        C        0.21875        0.407408        0.2607442832369943        0        
C3        C        0.1875        0.42592500000000005        0.2607442832369943        0        
C4        C        0.21875        0.37037        0.2607442832369943        0        
C1        C        0.1875        0.46296300000000007        0.2607442832369943        0        
C2        C        0.21875        0.518519        0.2607442832369943        0        
C3        C        0.1875        0.537037        0.2607442832369943        0        
C4        C        0.21875        0.481481        0.2607442832369943        0        
C1        C        0.1875        0.574075        0.2607442832369943        0        
C2        C        0.21875        0.62963        0.2607442832369943        0        
C3        C        0.1875        0.648148        0.2607442832369943        0        
C4        C        0.21875        0.592592        0.2607442832369943        0        
C1        C        0.25        0.018519        0.2607442832369943        0        
C2        C        0.28125        0.074075        0.2607442832369943        0        
C3        C        0.25        0.092592        0.2607442832369943        0        
C4        C        0.28125        0.037037        0.2607442832369943        0        
C1        C        0.25        0.12963        0.2607442832369943        0        
C2        C        0.28125        0.185185        0.2607442832369943        0        
C3        C        0.25        0.203703        0.2607442832369943        0        
C4        C        0.28125        0.148148        0.2607442832369943        0        
C1        C        0.25        0.24074099999999998        0.2607442832369943        0        
C2        C        0.28125        0.296297        0.2607442832369943        0        
C3        C        0.25        0.314815        0.2607442832369943        0        
C4        C        0.28125        0.259259        0.2607442832369943        0        
C1        C        0.25        0.351852        0.2607442832369943        0        
C2        C        0.28125        0.407408        0.2607442832369943        0        
C3        C        0.25        0.42592500000000005        0.2607442832369943        0        
C4        C        0.28125        0.37037        0.2607442832369943        0        
C1        C        0.25        0.46296300000000007        0.2607442832369943        0        
C2        C        0.28125        0.518519        0.2607442832369943        0        
C3        C        0.25        0.537037        0.2607442832369943        0        
C4        C        0.28125        0.481481        0.2607442832369943        0        
C1        C        0.25        0.574075        0.2607442832369943        0        
C2        C        0.28125        0.62963        0.2607442832369943        0        
C3        C        0.25        0.648148        0.2607442832369943        0        
C4        C        0.28125        0.592592        0.2607442832369943        0        
C1        C        0.3125        0.018519        0.2607442832369943        0        
C2        C        0.34375        0.074075        0.2607442832369943        0        
C3        C        0.3125        0.092592        0.2607442832369943        0        
C4        C        0.34375        0.037037        0.2607442832369943        0        
C1        C        0.3125        0.12963        0.2607442832369943        0        
C2        C        0.34375        0.185185        0.2607442832369943        0        
C3        C        0.3125        0.203703        0.2607442832369943        0        
C4        C        0.34375        0.148148        0.2607442832369943        0        
C1        C        0.3125        0.24074099999999998        0.2607442832369943        0        
C2        C        0.34375        0.296297        0.2607442832369943        0        
C3        C        0.3125        0.314815        0.2607442832369943        0        
C4        C        0.34375        0.259259        0.2607442832369943        0        
C1        C        0.3125        0.351852        0.2607442832369943        0        
C2        C        0.34375        0.407408        0.2607442832369943        0        
C3        C        0.3125        0.42592500000000005        0.2607442832369943        0        
C4        C        0.34375        0.37037        0.2607442832369943        0        
C1        C        0.3125        0.46296300000000007        0.2607442832369943        0        
C2        C        0.34375        0.518519        0.2607442832369943        0        
C3        C        0.3125        0.537037        0.2607442832369943        0        
C4        C        0.34375        0.481481        0.2607442832369943        0        
C1        C        0.3125        0.574075        0.2607442832369943        0        
C2        C        0.34375        0.62963        0.2607442832369943        0        
C3        C        0.3125        0.648148        0.2607442832369943        0        
C4        C        0.34375        0.592592        0.2607442832369943        0        
C1        C        0.375        0.018519        0.2607442832369943        0        
C2        C        0.40625        0.074075        0.2607442832369943        0        
C3        C        0.375        0.092592        0.2607442832369943        0        
C4        C        0.40625        0.037037        0.2607442832369943        0        
C1        C        0.375        0.12963        0.2607442832369943        0        
C2        C        0.40625        0.185185        0.2607442832369943        0        
C3        C        0.375        0.203703        0.2607442832369943        0        
C4        C        0.40625        0.148148        0.2607442832369943        0        
C1        C        0.375        0.24074099999999998        0.2607442832369943        0        
C2        C        0.40625        0.296297        0.2607442832369943        0        
C3        C        0.375        0.314815        0.2607442832369943        0        
C4        C        0.40625        0.259259        0.2607442832369943        0        
C1        C        0.375        0.351852        0.2607442832369943        0        
C2        C        0.40625        0.407408        0.2607442832369943        0        
C3        C        0.375        0.42592500000000005        0.2607442832369943        0        
C4        C        0.40625        0.37037        0.2607442832369943        0        
C1        C        0.375        0.46296300000000007        0.2607442832369943        0        
C2        C        0.40625        0.518519        0.2607442832369943        0        
C3        C        0.375        0.537037        0.2607442832369943        0        
C4        C        0.40625        0.481481        0.2607442832369943        0        
C1        C        0.375        0.574075        0.2607442832369943        0        
C2        C        0.40625        0.62963        0.2607442832369943        0        
C3        C        0.375        0.648148        0.2607442832369943        0        
C4        C        0.40625        0.592592        0.2607442832369943        0        
C1        C        0.4375        0.018519        0.2607442832369943        0        
C2        C        0.46875        0.074075        0.2607442832369943        0        
C3        C        0.4375        0.092592        0.2607442832369943        0        
C4        C        0.46875        0.037037        0.2607442832369943        0        
C1        C        0.4375        0.12963        0.2607442832369943        0        
C2        C        0.46875        0.185185        0.2607442832369943        0        
C3        C        0.4375        0.203703        0.2607442832369943        0        
C4        C        0.46875        0.148148        0.2607442832369943        0        
C1        C        0.4375        0.24074099999999998        0.2607442832369943        0        
C2        C        0.46875        0.296297        0.2607442832369943        0        
C3        C        0.4375        0.314815        0.2607442832369943        0        
C4        C        0.46875        0.259259        0.2607442832369943        0        
C1        C        0.4375        0.351852        0.2607442832369943        0        
C2        C        0.46875        0.407408        0.2607442832369943        0        
C3        C        0.4375        0.42592500000000005        0.2607442832369943        0        
C4        C        0.46875        0.37037        0.2607442832369943        0        
C1        C        0.4375        0.46296300000000007        0.2607442832369943        0        
C2        C        0.46875        0.518519        0.2607442832369943        0        
C3        C        0.4375        0.537037        0.2607442832369943        0        
C4        C        0.46875        0.481481        0.2607442832369943        0        
C1        C        0.4375        0.574075        0.2607442832369943        0        
C2        C        0.46875        0.62963        0.2607442832369943        0        
C3        C        0.4375        0.648148        0.2607442832369943        0        
C4        C        0.46875        0.592592        0.2607442832369943        0        
C1        C        0.5        0.018519        0.2607442832369943        0        
C2        C        0.53125        0.074075        0.2607442832369943        0        
C3        C        0.5        0.092592        0.2607442832369943        0        
C4        C        0.53125        0.037037        0.2607442832369943        0        
C1        C        0.5        0.12963        0.2607442832369943        0        
C2        C        0.53125        0.185185        0.2607442832369943        0        
C3        C        0.5        0.203703        0.2607442832369943        0        
C4        C        0.53125        0.148148        0.2607442832369943        0        
C1        C        0.5        0.24074099999999998        0.2607442832369943        0        
C2        C        0.53125        0.296297        0.2607442832369943        0        
C3        C        0.5        0.314815        0.2607442832369943        0        
C4        C        0.53125        0.259259        0.2607442832369943        0        
C1        C        0.5        0.351852        0.2607442832369943        0        
C2        C        0.53125        0.407408        0.2607442832369943        0        
C3        C        0.5        0.42592500000000005        0.2607442832369943        0        
C4        C        0.53125        0.37037        0.2607442832369943        0        
C1        C        0.5        0.46296300000000007        0.2607442832369943        0        
C2        C        0.53125        0.518519        0.2607442832369943        0        
C3        C        0.5        0.537037        0.2607442832369943        0        
C4        C        0.53125        0.481481        0.2607442832369943        0        
C1        C        0.5        0.574075        0.2607442832369943        0        
C2        C        0.53125        0.62963        0.2607442832369943        0        
C3        C        0.5        0.648148        0.2607442832369943        0        
C4        C        0.53125        0.592592        0.2607442832369943        0        
C1        C        0.5625        0.018519        0.2607442832369943        0        
C2        C        0.59375        0.074075        0.2607442832369943        0        
C3        C        0.5625        0.092592        0.2607442832369943        0        
C4        C        0.59375        0.037037        0.2607442832369943        0        
C1        C        0.5625        0.12963        0.2607442832369943        0        
C2        C        0.59375        0.185185        0.2607442832369943        0        
C3        C        0.5625        0.203703        0.2607442832369943        0        
C4        C        0.59375        0.148148        0.2607442832369943        0        
C1        C        0.5625        0.24074099999999998        0.2607442832369943        0        
C2        C        0.59375        0.296297        0.2607442832369943        0        
C3        C        0.5625        0.314815        0.2607442832369943        0        
C4        C        0.59375        0.259259        0.2607442832369943        0        
C1        C        0.5625        0.351852        0.2607442832369943        0        
C2        C        0.59375        0.407408        0.2607442832369943        0        
C3        C        0.5625        0.42592500000000005        0.2607442832369943        0        
C4        C        0.59375        0.37037        0.2607442832369943        0        
C1        C        0.5625        0.46296300000000007        0.2607442832369943        0        
C2        C        0.59375        0.518519        0.2607442832369943        0        
C3        C        0.5625        0.537037        0.2607442832369943        0        
C4        C        0.59375        0.481481        0.2607442832369943        0        
C1        C        0.5625        0.574075        0.2607442832369943        0        
C2        C        0.59375        0.62963        0.2607442832369943        0        
C3        C        0.5625        0.648148        0.2607442832369943        0        
C4        C        0.59375        0.592592        0.2607442832369943        0        
C1        C        0.625        0.018519        0.2607442832369943        0        
C2        C        0.65625        0.074075        0.2607442832369943        0        
C3        C        0.625        0.092592        0.2607442832369943        0        
C4        C        0.65625        0.037037        0.2607442832369943        0        
C1        C        0.625        0.12963        0.2607442832369943        0        
C2        C        0.65625        0.185185        0.2607442832369943        0        
C3        C        0.625        0.203703        0.2607442832369943        0        
C4        C        0.65625        0.148148        0.2607442832369943        0        
C1        C        0.625        0.24074099999999998        0.2607442832369943        0        
C2        C        0.65625        0.296297        0.2607442832369943        0        
C3        C        0.625        0.314815        0.2607442832369943        0        
C4        C        0.65625        0.259259        0.2607442832369943        0        
C1        C        0.625        0.351852        0.2607442832369943        0        
C2        C        0.65625        0.407408        0.2607442832369943        0        
C3        C        0.625        0.42592500000000005        0.2607442832369943        0        
C4        C        0.65625        0.37037        0.2607442832369943        0        
C1        C        0.625        0.46296300000000007        0.2607442832369943        0        
C2        C        0.65625        0.518519        0.2607442832369943        0        
C3        C        0.625        0.537037        0.2607442832369943        0        
C4        C        0.65625        0.481481        0.2607442832369943        0        
C1        C        0.625        0.574075        0.2607442832369943        0        
C2        C        0.65625        0.62963        0.2607442832369943        0        
C3        C        0.625        0.648148        0.2607442832369943        0        
C4        C        0.65625        0.592592        0.2607442832369943        0        
C1        C        0.6875        0.018519        0.2607442832369943        0        
C2        C        0.71875        0.074075        0.2607442832369943        0        
C3        C        0.6875        0.092592        0.2607442832369943        0        
C4        C        0.71875        0.037037        0.2607442832369943        0        
C1        C        0.6875        0.12963        0.2607442832369943        0        
C2        C        0.71875        0.185185        0.2607442832369943        0        
C3        C        0.6875        0.203703        0.2607442832369943        0        
C4        C        0.71875        0.148148        0.2607442832369943        0        
C1        C        0.6875        0.24074099999999998        0.2607442832369943        0        
C2        C        0.71875        0.296297        0.2607442832369943        0        
C3        C        0.6875        0.314815        0.2607442832369943        0        
C4        C        0.71875        0.259259        0.2607442832369943        0        
C1        C        0.6875        0.351852        0.2607442832369943        0        
C2        C        0.71875        0.407408        0.2607442832369943        0        
C3        C        0.6875        0.42592500000000005        0.2607442832369943        0        
C4        C        0.71875        0.37037        0.2607442832369943        0        
C1        C        0.6875        0.46296300000000007        0.2607442832369943        0        
C2        C        0.71875        0.518519        0.2607442832369943        0        
C3        C        0.6875        0.537037        0.2607442832369943        0        
C4        C        0.71875        0.481481        0.2607442832369943        0        
C1        C        0.6875        0.574075        0.2607442832369943        0        
C2        C        0.71875        0.62963        0.2607442832369943        0        
C3        C        0.6875        0.648148        0.2607442832369943        0        
C4        C        0.71875        0.592592        0.2607442832369943        0        
C1        C        0.75        0.018519        0.2607442832369943        0        
C2        C        0.78125        0.074075        0.2607442832369943        0        
C3        C        0.75        0.092592        0.2607442832369943        0        
C4        C        0.78125        0.037037        0.2607442832369943        0        
C1        C        0.75        0.12963        0.2607442832369943        0        
C2        C        0.78125        0.185185        0.2607442832369943        0        
C3        C        0.75        0.203703        0.2607442832369943        0        
C4        C        0.78125        0.148148        0.2607442832369943        0        
C1        C        0.75        0.24074099999999998        0.2607442832369943        0        
C2        C        0.78125        0.296297        0.2607442832369943        0        
C3        C        0.75        0.314815        0.2607442832369943        0        
C4        C        0.78125        0.259259        0.2607442832369943        0        
C1        C        0.75        0.351852        0.2607442832369943        0        
C2        C        0.78125        0.407408        0.2607442832369943        0        
C3        C        0.75        0.42592500000000005        0.2607442832369943        0        
C4        C        0.78125        0.37037        0.2607442832369943        0        
C1        C        0.75        0.46296300000000007        0.2607442832369943        0        
C2        C        0.78125        0.518519        0.2607442832369943        0        
C3        C        0.75        0.537037        0.2607442832369943        0        
C4        C        0.78125        0.481481        0.2607442832369943        0        
C1        C        0.75        0.574075        0.2607442832369943        0        
C2        C        0.78125        0.62963        0.2607442832369943        0        
C3        C        0.75        0.648148        0.2607442832369943        0        
C4        C        0.78125        0.592592        0.2607442832369943        0        
C1        C        0.8125        0.018519        0.2607442832369943        0        
C2        C        0.84375        0.074075        0.2607442832369943        0        
C3        C        0.8125        0.092592        0.2607442832369943        0        
C4        C        0.84375        0.037037        0.2607442832369943        0        
C1        C        0.8125        0.12963        0.2607442832369943        0        
C2        C        0.84375        0.185185        0.2607442832369943        0        
C3        C        0.8125        0.203703        0.2607442832369943        0        
C4        C        0.84375        0.148148        0.2607442832369943        0        
C1        C        0.8125        0.24074099999999998        0.2607442832369943        0        
C2        C        0.84375        0.296297        0.2607442832369943        0        
C3        C        0.8125        0.314815        0.2607442832369943        0        
C4        C        0.84375        0.259259        0.2607442832369943        0        
C1        C        0.8125        0.351852        0.2607442832369943        0        
C2        C        0.84375        0.407408        0.2607442832369943        0        
C3        C        0.8125        0.42592500000000005        0.2607442832369943        0        
C4        C        0.84375        0.37037        0.2607442832369943        0        
C1        C        0.8125        0.46296300000000007        0.2607442832369943        0        
C2        C        0.84375        0.518519        0.2607442832369943        0        
C3        C        0.8125        0.537037        0.2607442832369943        0        
C4        C        0.84375        0.481481        0.2607442832369943        0        
C1        C        0.8125        0.574075        0.2607442832369943        0        
C2        C        0.84375        0.62963        0.2607442832369943        0        
C3        C        0.8125        0.648148        0.2607442832369943        0        
C4        C        0.84375        0.592592        0.2607442832369943        0        
C1        C        0.875        0.018519        0.2607442832369943        0        
C2        C        0.9062500000000001        0.074075        0.2607442832369943        0        
C3        C        0.875        0.092592        0.2607442832369943        0        
C4        C        0.9062500000000001        0.037037        0.2607442832369943        0        
C1        C        0.875        0.12963        0.2607442832369943        0        
C2        C        0.9062500000000001        0.185185        0.2607442832369943        0        
C3        C        0.875        0.203703        0.2607442832369943        0        
C4        C        0.9062500000000001        0.148148        0.2607442832369943        0        
C1        C        0.875        0.24074099999999998        0.2607442832369943        0        
C2        C        0.9062500000000001        0.296297        0.2607442832369943        0        
C3        C        0.875        0.314815        0.2607442832369943        0        
C4        C        0.9062500000000001        0.259259        0.2607442832369943        0        
C1        C        0.875        0.351852        0.2607442832369943        0        
C2        C        0.9062500000000001        0.407408        0.2607442832369943        0        
C3        C        0.875        0.42592500000000005        0.2607442832369943        0        
C4        C        0.9062500000000001        0.37037        0.2607442832369943        0        
C1        C        0.875        0.46296300000000007        0.2607442832369943        0        
C2        C        0.9062500000000001        0.518519        0.2607442832369943        0        
C3        C        0.875        0.537037        0.2607442832369943        0        
C4        C        0.9062500000000001        0.481481        0.2607442832369943        0        
C1        C        0.875        0.574075        0.2607442832369943        0        
C2        C        0.9062500000000001        0.62963        0.2607442832369943        0        
C3        C        0.875        0.648148        0.2607442832369943        0        
C4        C        0.9062500000000001        0.592592        0.2607442832369943        0        
C1        C        0.9375        0.018519        0.2607442832369943        0        
C2        C        0.9687500000000001        0.074075        0.2607442832369943        0        
C3        C        0.9375        0.092592        0.2607442832369943        0        
C4        C        0.9687500000000001        0.037037        0.2607442832369943        0        
C1        C        0.9375        0.12963        0.2607442832369943        0        
C2        C        0.9687500000000001        0.185185        0.2607442832369943        0        
C3        C        0.9375        0.203703        0.2607442832369943        0        
C4        C        0.9687500000000001        0.148148        0.2607442832369943        0        
C1        C        0.9375        0.24074099999999998        0.2607442832369943        0        
C2        C        0.9687500000000001        0.296297        0.2607442832369943        0        
C3        C        0.9375        0.314815        0.2607442832369943        0        
C4        C        0.9687500000000001        0.259259        0.2607442832369943        0        
C1        C        0.9375        0.351852        0.2607442832369943        0        
C2        C        0.9687500000000001        0.407408        0.2607442832369943        0        
C3        C        0.9375        0.42592500000000005        0.2607442832369943        0        
C4        C        0.9687500000000001        0.37037        0.2607442832369943        0        
C1        C        0.9375        0.46296300000000007        0.2607442832369943        0        
C2        C        0.9687500000000001        0.518519        0.2607442832369943        0        
C3        C        0.9375        0.537037        0.2607442832369943        0        
C4        C        0.9687500000000001        0.481481        0.2607442832369943        0        
C1        C        0.9375        0.574075        0.2607442832369943        0        
C2        C        0.9687500000000001        0.62963        0.2607442832369943        0        
C3        C        0.9375        0.648148        0.2607442832369943        0        
C4        C        0.9687500000000001        0.592592        0.2607442832369943        0        
C1        C        0.0        0.685186        0.2607442832369943        0        
C1        C        0.0625        0.685186        0.2607442832369943        0        
C1        C        0.125        0.685186        0.2607442832369943        0        
C1        C        0.1875        0.685186        0.2607442832369943        0        
C1        C        0.25        0.685186        0.2607442832369943        0        
C1        C        0.3125        0.685186        0.2607442832369943        0        
C1        C        0.375        0.685186        0.2607442832369943        0        
C1        C        0.4375        0.685186        0.2607442832369943        0        
C1        C        0.5        0.685186        0.2607442832369943        0        
C1        C        0.5625        0.685186        0.2607442832369943        0        
C1        C        0.625        0.685186        0.2607442832369943        0        
C1        C        0.6875        0.685186        0.2607442832369943        0        
C1        C        0.75        0.685186        0.2607442832369943        0        
C1        C        0.8125        0.685186        0.2607442832369943        0        
C1        C        0.875        0.685186        0.2607442832369943        0        
C1        C        0.9375        0.685186        0.2607442832369943        0        
C2        C        0.03125        0.740741        0.2607442832369943        0        
C2        C        0.09375        0.740741        0.2607442832369943        0        
C2        C        0.15625        0.740741        0.2607442832369943        0        
C2        C        0.21875        0.740741        0.2607442832369943        0        
C2        C        0.28125        0.740741        0.2607442832369943        0        
C2        C        0.34375        0.740741        0.2607442832369943        0        
C2        C        0.40625        0.740741        0.2607442832369943        0        
C2        C        0.46875        0.740741        0.2607442832369943        0        
C2        C        0.53125        0.740741        0.2607442832369943        0        
C2        C        0.59375        0.740741        0.2607442832369943        0        
C2        C        0.65625        0.740741        0.2607442832369943        0        
C2        C        0.71875        0.740741        0.2607442832369943        0        
C2        C        0.78125        0.740741        0.2607442832369943        0        
C2        C        0.84375        0.740741        0.2607442832369943        0        
C2        C        0.9062500000000001        0.740741        0.2607442832369943        0        
C2        C        0.9687500000000001        0.740741        0.2607442832369943        0        
C3        C        0.0        0.759259        0.2607442832369943        0        
C3        C        0.0625        0.759259        0.2607442832369943        0        
C3        C        0.125        0.759259        0.2607442832369943        0        
C3        C        0.1875        0.759259        0.2607442832369943        0        
C3        C        0.25        0.759259        0.2607442832369943        0        
C3        C        0.3125        0.759259        0.2607442832369943        0        
C3        C        0.375        0.759259        0.2607442832369943        0        
C3        C        0.4375        0.759259        0.2607442832369943        0        
C3        C        0.5        0.759259        0.2607442832369943        0        
C3        C        0.5625        0.759259        0.2607442832369943        0        
C3        C        0.625        0.759259        0.2607442832369943        0        
C3        C        0.6875        0.759259        0.2607442832369943        0        
C3        C        0.75        0.759259        0.2607442832369943        0        
C3        C        0.8125        0.759259        0.2607442832369943        0        
C3        C        0.875        0.759259        0.2607442832369943        0        
C3        C        0.9375        0.759259        0.2607442832369943        0        
C4        C        0.03125        0.703703        0.2607442832369943        0        
C4        C        0.09375        0.703703        0.2607442832369943        0        
C4        C        0.15625        0.703703        0.2607442832369943        0        
C4        C        0.21875        0.703703        0.2607442832369943        0        
C4        C        0.28125        0.703703        0.2607442832369943        0        
C4        C        0.34375        0.703703        0.2607442832369943        0        
C4        C        0.40625        0.703703        0.2607442832369943        0        
C4        C        0.46875        0.703703        0.2607442832369943        0        
C4        C        0.53125        0.703703        0.2607442832369943        0        
C4        C        0.59375        0.703703        0.2607442832369943        0        
C4        C        0.65625        0.703703        0.2607442832369943        0        
C4        C        0.71875        0.703703        0.2607442832369943        0        
C4        C        0.78125        0.703703        0.2607442832369943        0        
C4        C        0.84375        0.703703        0.2607442832369943        0        
C4        C        0.9062500000000001        0.703703        0.2607442832369943        0        
C4        C        0.9687500000000001        0.703703        0.2607442832369943        0        
C1        C        0.0        0.796297        0.2607442832369943        0        
C1        C        0.0625        0.796297        0.2607442832369943        0        
C1        C        0.125        0.796297        0.2607442832369943        0        
C1        C        0.1875        0.796297        0.2607442832369943        0        
C1        C        0.25        0.796297        0.2607442832369943        0        
C1        C        0.3125        0.796297        0.2607442832369943        0        
C1        C        0.375        0.796297        0.2607442832369943        0        
C1        C        0.4375        0.796297        0.2607442832369943        0        
C1        C        0.5        0.796297        0.2607442832369943        0        
C1        C        0.5625        0.796297        0.2607442832369943        0        
C1        C        0.625        0.796297        0.2607442832369943        0        
C1        C        0.6875        0.796297        0.2607442832369943        0        
C1        C        0.75        0.796297        0.2607442832369943        0        
C1        C        0.8125        0.796297        0.2607442832369943        0        
C1        C        0.875        0.796297        0.2607442832369943        0        
C1        C        0.9375        0.796297        0.2607442832369943        0        
C2        C        0.03125        0.851852        0.2607442832369943        0        
C2        C        0.09375        0.851852        0.2607442832369943        0        
C2        C        0.15625        0.851852        0.2607442832369943        0        
C2        C        0.21875        0.851852        0.2607442832369943        0        
C2        C        0.28125        0.851852        0.2607442832369943        0        
C2        C        0.34375        0.851852        0.2607442832369943        0        
C2        C        0.40625        0.851852        0.2607442832369943        0        
C2        C        0.46875        0.851852        0.2607442832369943        0        
C2        C        0.53125        0.851852        0.2607442832369943        0        
C2        C        0.59375        0.851852        0.2607442832369943        0        
C2        C        0.65625        0.851852        0.2607442832369943        0        
C2        C        0.71875        0.851852        0.2607442832369943        0        
C2        C        0.78125        0.851852        0.2607442832369943        0        
C2        C        0.84375        0.851852        0.2607442832369943        0        
C2        C        0.9062500000000001        0.851852        0.2607442832369943        0        
C2        C        0.9687500000000001        0.851852        0.2607442832369943        0        
C3        C        0.0        0.87037        0.2607442832369943        0        
C3        C        0.0625        0.87037        0.2607442832369943        0        
C3        C        0.125        0.87037        0.2607442832369943        0        
C3        C        0.1875        0.87037        0.2607442832369943        0        
C3        C        0.25        0.87037        0.2607442832369943        0        
C3        C        0.3125        0.87037        0.2607442832369943        0        
C3        C        0.375        0.87037        0.2607442832369943        0        
C3        C        0.4375        0.87037        0.2607442832369943        0        
C3        C        0.5        0.87037        0.2607442832369943        0        
C3        C        0.5625        0.87037        0.2607442832369943        0        
C3        C        0.625        0.87037        0.2607442832369943        0        
C3        C        0.6875        0.87037        0.2607442832369943        0        
C3        C        0.75        0.87037        0.2607442832369943        0        
C3        C        0.8125        0.87037        0.2607442832369943        0        
C3        C        0.875        0.87037        0.2607442832369943        0        
C3        C        0.9375        0.87037        0.2607442832369943        0        
C4        C        0.03125        0.814814        0.2607442832369943        0        
C4        C        0.09375        0.814814        0.2607442832369943        0        
C4        C        0.15625        0.814814        0.2607442832369943        0        
C4        C        0.21875        0.814814        0.2607442832369943        0        
C4        C        0.28125        0.814814        0.2607442832369943        0        
C4        C        0.34375        0.814814        0.2607442832369943        0        
C4        C        0.40625        0.814814        0.2607442832369943        0        
C4        C        0.46875        0.814814        0.2607442832369943        0        
C4        C        0.53125        0.814814        0.2607442832369943        0        
C4        C        0.59375        0.814814        0.2607442832369943        0        
C4        C        0.65625        0.814814        0.2607442832369943        0        
C4        C        0.71875        0.814814        0.2607442832369943        0        
C4        C        0.78125        0.814814        0.2607442832369943        0        
C4        C        0.84375        0.814814        0.2607442832369943        0        
C4        C        0.9062500000000001        0.814814        0.2607442832369943        0        
C4        C        0.9687500000000001        0.814814        0.2607442832369943        0        
C1        C        0.0        0.907408        0.2607442832369943        0        
C1        C        0.0625        0.907408        0.2607442832369943        0        
C1        C        0.125        0.907408        0.2607442832369943        0        
C1        C        0.1875        0.907408        0.2607442832369943        0        
C1        C        0.25        0.907408        0.2607442832369943        0        
C1        C        0.3125        0.907408        0.2607442832369943        0        
C1        C        0.375        0.907408        0.2607442832369943        0        
C1        C        0.4375        0.907408        0.2607442832369943        0        
C1        C        0.5        0.907408        0.2607442832369943        0        
C1        C        0.5625        0.907408        0.2607442832369943        0        
C1        C        0.625        0.907408        0.2607442832369943        0        
C1        C        0.6875        0.907408        0.2607442832369943        0        
C1        C        0.75        0.907408        0.2607442832369943        0        
C1        C        0.8125        0.907408        0.2607442832369943        0        
C1        C        0.875        0.907408        0.2607442832369943        0        
C1        C        0.9375        0.907408        0.2607442832369943        0        
C2        C        0.03125        0.962963        0.2607442832369943        0        
C2        C        0.09375        0.962963        0.2607442832369943        0        
C2        C        0.15625        0.962963        0.2607442832369943        0        
C2        C        0.21875        0.962963        0.2607442832369943        0        
C2        C        0.28125        0.962963        0.2607442832369943        0        
C2        C        0.34375        0.962963        0.2607442832369943        0        
C2        C        0.40625        0.962963        0.2607442832369943        0        
C2        C        0.46875        0.962963        0.2607442832369943        0        
C2        C        0.53125        0.962963        0.2607442832369943        0        
C2        C        0.59375        0.962963        0.2607442832369943        0        
C2        C        0.65625        0.962963        0.2607442832369943        0        
C2        C        0.71875        0.962963        0.2607442832369943        0        
C2        C        0.78125        0.962963        0.2607442832369943        0        
C2        C        0.84375        0.962963        0.2607442832369943        0        
C2        C        0.9062500000000001        0.962963        0.2607442832369943        0        
C2        C        0.9687500000000001        0.962963        0.2607442832369943        0        
C3        C        0.0        0.9814809999999999        0.2607442832369943        0        
C3        C        0.0625        0.9814809999999999        0.2607442832369943        0        
C3        C        0.125        0.9814809999999999        0.2607442832369943        0        
C3        C        0.1875        0.9814809999999999        0.2607442832369943        0        
C3        C        0.25        0.9814809999999999        0.2607442832369943        0        
C3        C        0.3125        0.9814809999999999        0.2607442832369943        0        
C3        C        0.375        0.9814809999999999        0.2607442832369943        0        
C3        C        0.4375        0.9814809999999999        0.2607442832369943        0        
C3        C        0.5        0.9814809999999999        0.2607442832369943        0        
C3        C        0.5625        0.9814809999999999        0.2607442832369943        0        
C3        C        0.625        0.9814809999999999        0.2607442832369943        0        
C3        C        0.6875        0.9814809999999999        0.2607442832369943        0        
C3        C        0.75        0.9814809999999999        0.2607442832369943        0        
C3        C        0.8125        0.9814809999999999        0.2607442832369943        0        
C3        C        0.875        0.9814809999999999        0.2607442832369943        0        
C3        C        0.9375        0.9814809999999999        0.2607442832369943        0        
C4        C        0.03125        0.925925        0.2607442832369943        0        
C4        C        0.09375        0.925925        0.2607442832369943        0        
C4        C        0.15625        0.925925        0.2607442832369943        0        
C4        C        0.21875        0.925925        0.2607442832369943        0        
C4        C        0.28125        0.925925        0.2607442832369943        0        
C4        C        0.34375        0.925925        0.2607442832369943        0        
C4        C        0.40625        0.925925        0.2607442832369943        0        
C4        C        0.46875        0.925925        0.2607442832369943        0        
C4        C        0.53125        0.925925        0.2607442832369943        0        
C4        C        0.59375        0.925925        0.2607442832369943        0        
C4        C        0.65625        0.925925        0.2607442832369943        0        
C4        C        0.71875        0.925925        0.2607442832369943        0        
C4        C        0.78125        0.925925        0.2607442832369943        0        
C4        C        0.84375        0.925925        0.2607442832369943        0        
C4        C        0.9062500000000001        0.925925        0.2607442832369943        0        
C4        C        0.9687500000000001        0.925925        0.2607442832369943        0        
C_COOH        C        0.0        0.018519        0.02317164739884393        0.55        
O1_COOH        O        0.01875390328686141        0.040950626880808236        0.010597687861271674        -0.5        
O2_COOH        O        -0.018259684214592998        -0.003321489256979757        0.0        -0.58        
H_COOH        H        -0.031078313808269788        -0.018653908954914887        0.016871676300578037        0.45        
C_COOH        C        0.0        0.203703        0.02317164739884393        0.55        
O1_COOH        O        -0.015835260452592016        0.22839255842185727        0.010597687861271674        -0.5        
O2_COOH        O        0.015417955979475135        0.17966408216593518        0.0        -0.58        
H_COOH        H        0.026241640796245184        0.162788325722051        0.016871676300578037        0.45        
O_OH        O        0.0        0.351852        0.025686098265895952        -0.64        
H_OH        H        0.011378868246458453        0.3721892748920763        0.01596936416184971        0.44        
C_COOH        C        0.0        0.537037        0.02317164739884393        0.55        
O1_COOH        O        -0.018999018923267517        0.5592501745632641        0.010597687861271674        -0.5        
O2_COOH        O        0.01849834035184471        0.5154092062162391        0.0        -0.58        
H_COOH        H        0.031484510883674335        0.5002261025993162        0.016871676300578037        0.45        
O_OH        O        0.25        0.018519        0.025686098265895952        -0.64        
H_OH        H        0.26038144925324763        0.03941108231152741        0.01596936416184971        0.44        
O_CO        O        0.25        0.203703        0.025686098265895952        -0.5        
O_CO        O        0.25        0.351852        0.025686098265895952        -0.5        
C_COOH        C        0.25        0.537037        0.02317164739884393        0.55        
O1_COOH        O        0.22231801482263458        0.5451759081473039        0.010597687861271674        -0.5        
O2_COOH        O        0.2769524855727423        0.5291125753963248        0.0        -0.58        
H_COOH        H        0.29587361942837526        0.5235494855562306        0.016871676300578037        0.45        
O_OH        O        0.5        0.018519        0.025686098265895952        -0.64        
H_OH        H        0.5110542168478178        0.03904411506541948        0.01596936416184971        0.44        
O_OH        O        0.5        0.203703        0.025686098265895952        -0.64        
H_OH        H        0.5193456216350916        0.21617829874527816        0.01596936416184971        0.44        
O_OH        O        0.5        0.351852        0.025686098265895952        -0.64        
H_OH        H        0.5202879912240619        0.36263484907941196        0.01596936416184971        0.44        
C_COOH        C        0.5        0.537037        0.02317164739884393        0.55        
O1_COOH        O        0.49546385002109095        0.5662288381295498        0.010597687861271674        -0.5        
O2_COOH        O        0.504416609433138        0.5086144504253454        0.0        -0.58        
H_COOH        H        0.507517149383226        0.48866130496983773        0.016871676300578037        0.45        
O_CO        O        0.75        0.018519        0.025686098265895952        -0.5        
O_CO        O        0.75        0.203703        0.025686098265895952        -0.5        
O_CO        O        0.75        0.351852        0.025686098265895952        -0.5        
O_OH        O        0.75        0.537037        0.025686098265895952        -0.64        
H_OH        H        0.7409503741843662        0.5585719284088537        0.01596936416184971        0.44        
C_COOH        C        0.0        0.685186        0.02317164739884393        0.55        
O1_COOH        O        0.028723781167679204        0.6872621135603864        0.010597687861271674        -0.5        
O2_COOH        O        -0.027966827254480953        0.6831645979789686        0.0        -0.58        
H_COOH        H        -0.04760004737331678        0.681745537087061        0.016871676300578037        0.45        
O_CO        O        0.25        0.685186        0.025686098265895952        -0.5        
C_COOH        C        0.5        0.685186        0.02317164739884393        0.55        
O1_COOH        O        0.47365322197202026        0.6971137361107523        0.010597687861271674        -0.5        
O2_COOH        O        0.5256524649564512        0.673572593902832        0.0        -0.58        
H_COOH        H        0.5436609607539155        0.6654197721272193        0.016871676300578037        0.45        
C_COOH        C        0.75        0.685186        0.02317164739884393        0.55        
O1_COOH        O        0.7277140159581421        0.7039051410716765        0.010597687861271674        -0.5        
O2_COOH        O        0.7716986845240305        0.6669601619166452        0.0        -0.58        
H_COOH        H        0.7869315547267528        0.6541652929211487        0.016871676300578037        0.45        
C_COOH        C        0.0        0.87037        0.02317164739884393        0.55        
O1_COOH        O        -0.028774534820996046        0.8714811515759842        0.010597687861271674        -0.5        
O2_COOH        O        0.02801624340364877        0.8692881304509428        0.0        -0.58        
H_COOH        H        0.04768415455572941        0.8685286383997629        0.016871676300578037        0.45        
O_OH        O        0.25        0.87037        0.025686098265895952        -0.64        
H_OH        H        0.27185810402398564        0.8771911342372669        0.01596936416184971        0.44        
C_COOH        C        0.5        0.87037        0.02317164739884393        0.55        
O1_COOH        O        0.4938082721431923        0.8992394472476449        0.010597687861271674        -0.5        
O2_COOH        O        0.5060285580915422        0.8422613453840216        0.0        -0.58        
H_COOH        H        0.5102607152444946        0.8225285598843218        0.016871676300578037        0.45        
O_CO        O        0.75        0.87037        0.025686098265895952        -0.5        
C_COOH        C        0.0        0.018519        0.3046745375722543        0.55        
O1_COOH        O        0.028679648407896996        0.02116100839109733        0.31724849710982655        -0.5        
O2_COOH        O        -0.02792385751933754        0.015946616098055724        0.3278461849710983        -0.58        
H_COOH        H        -0.0475269121045273        0.0141407559295974        0.3109745086705202        0.45        
C_COOH        C        0.0        0.203703        0.3046745375722543        0.55        
O1_COOH        O        0.004486028844340236        0.23290299993315558        0.31724849710982655        -0.5        
O2_COOH        O        -0.004367809134037453        0.1752725037086442        0.3278461849710983        -0.58        
H_COOH        H        -0.007434090388800779        0.15531377951383948        0.3109745086705202        0.45        
O_OH        O        0.0        0.351852        0.3021600867052023        -0.64        
H_OH        H        0.0008045104712845844        0.3752909039528466        0.31187682080924856        0.44        
C_COOH        C        0.0        0.537037        0.3046745375722543        0.55        
O1_COOH        O        -0.020242627906506033        0.558060622306189        0.31724849710982655        -0.5        
O2_COOH        O        0.019709176676050082        0.5165674103638612        0.3278461849710983        -0.58        
H_COOH        H        0.03354537627498446        0.5021973870712061        0.3109745086705202        0.45        
O_OH        O        0.25        0.018519        0.3021600867052023        -0.64        
H_OH        H        0.2654829551004904        0.03576480030115451        0.31187682080924856        0.44        
O_CO        O        0.25        0.203703        0.3021600867052023        -0.5        
O_CO        O        0.25        0.351852        0.3021600867052023        -0.5        
C_COOH        C        0.25        0.537037        0.3046745375722543        0.55        
O1_COOH        O        0.25188179453097786        0.5665347525285327        0.31724849710982655        -0.5        
O2_COOH        O        0.24816779614532425        0.5083165977470693        0.3278461849710983        -0.58        
H_COOH        H        0.24688155579871268        0.48815435430764037        0.3109745086705202        0.45        
O_OH        O        0.5        0.018519        0.3021600867052023        -0.64        
H_OH        H        0.5174371315073018        0.03367213404524318        0.31187682080924856        0.44        
O_OH        O        0.5        0.203703        0.3021600867052023        -0.64        
H_OH        H        0.5200112143548935        0.21501781746583432        0.31187682080924856        0.44        
O_OH        O        0.5        0.351852        0.3021600867052023        -0.64        
H_OH        H        0.5072439120763933        0.37409522125956335        0.31187682080924856        0.44        
C_COOH        C        0.5        0.537037        0.3046745375722543        0.55        
O1_COOH        O        0.4715645764891018        0.5416933075292276        0.31724849710982655        -0.5        
O2_COOH        O        0.5276860686479582        0.5325033995121861        0.3278461849710983        -0.58        
H_COOH        H        0.5471221911313718        0.5293207297192137        0.3109745086705202        0.45        
O_CO        O        0.75        0.018519        0.3021600867052023        -0.5        
O_CO        O        0.75        0.203703        0.3021600867052023        -0.5        
O_CO        O        0.75        0.351852        0.3021600867052023        -0.5        
O_OH        O        0.75        0.537037        0.3021600867052023        -0.64        
H_OH        H        0.7271876039870874        0.5383022298633805        0.31187682080924856        0.44        
C_COOH        C        0.0        0.685186        0.3046745375722543        0.55        
O1_COOH        O        -0.02260548574683431        0.7034969265384896        0.31724849710982655        -0.5        
O2_COOH        O        0.02200976644386637        0.6673576188275497        0.3278461849710983        -0.58        
H_COOH        H        0.037461021798095316        0.6548417717943422        0.3109745086705202        0.45        
O_CO        O        0.25        0.685186        0.3021600867052023        -0.5        
C_COOH        C        0.5        0.685186        0.3046745375722543        0.55        
O1_COOH        O        0.4712323314692176        0.6864709363989667        0.31724849710982655        -0.5        
O2_COOH        O        0.5280095580598508        0.6839349253558534        0.3278461849710983        -0.58        
H_COOH        H        0.5476727759792969        0.6830566482581292        0.3109745086705202        0.45        
C_COOH        C        0.75        0.685186        0.3046745375722543        0.55        
O1_COOH        O        0.7727434300419206        0.7033160063093702        0.31724849710982655        -0.5        
O2_COOH        O        0.7278559244883651        0.6675337712903849        0.3278461849710983        -0.58        
H_COOH        H        0.7123103817318699        0.6551415864819213        0.3109745086705202        0.45        
C_COOH        C        0.0        0.87037        0.3046745375722543        0.55        
O1_COOH        O        -0.024345568317785126        0.8861556409165888        0.31724849710982655        -0.5        
O2_COOH        O        0.02370399285459649        0.8550003559396189        0.3278461849710983        -0.58        
H_COOH        H        0.0403446258865411        0.8442105869665485        0.3109745086705202        0.45        
O_OH        O        0.25        0.87037        0.3021600867052023        -0.64        
H_OH        H        0.2553593629912151        0.8931689685254518        0.31187682080924856        0.44        
C_COOH        C        0.5        0.87037        0.3046745375722543        0.55        
O1_COOH        O        0.5090704886387578        0.8984260127229854        0.31724849710982655        -0.5        
O2_COOH        O        0.4911685447193383        0.8430533435788687        0.3278461849710983        -0.58        
H_COOH        H        0.48496870288825944        0.8238765551807228        0.3109745086705202        0.45        
O_CO        O        0.75        0.87037        0.3021600867052023        -0.5        
