data_graphite_ortho

_audit_creation_method RASPA-1.0
_audit_creation_date 2012-2-3
_audit_author_name 'David Dubbeldam'

_cell_length_a    49.2    
_cell_length_b    46.86    
_cell_length_c    50    
_cell_angle_alpha 90
_cell_angle_beta  90
_cell_angle_gamma 90
_cell_volume      115275.60      

_symmetry_cell_setting          triclinic
_symmetry_space_group_name_Hall 'P 1'
_symmetry_space_group_name_H-M  'P 1'
_symmetry_Int_Tables_number     1

_symmetry_equiv_pos_as_xyz 'x,y,z'

loop_
_atom_site_label
_atom_site_type_symbol
_atom_site_fract_x
_atom_site_fract_y
_atom_site_fract_z
_atom_site_charge
C1        C        0.0        0.015152        0.0        0        
C2        C        0.025        0.060607        0.0        0        
C3        C        0.0        0.075757        0.0        0        
C4        C        0.025        0.030303        0.0        0        
C1        C        0.0        0.106061        0.0        0        
C2        C        0.025        0.151515        0.0        0        
C3        C        0.0        0.166666        0.0        0        
C4        C        0.025        0.121212        0.0        0        
C1        C        0.0        0.19697        0.0        0        
C2        C        0.025        0.242425        0.0        0        
C3        C        0.0        0.257576        0.0        0        
C4        C        0.025        0.212121        0.0        0        
C1        C        0.0        0.287879        0.0        0        
C2        C        0.025        0.333334        0.0        0        
C3        C        0.0        0.348484        0.0        0        
C4        C        0.025        0.30303        0.0        0        
C1        C        0.0        0.378788        0.0        0        
C2        C        0.025        0.424243        0.0        0        
C3        C        0.0        0.439394        0.0        0        
C4        C        0.025        0.393939        0.0        0        
C1        C        0.0        0.469697        0.0        0        
C2        C        0.025        0.515152        0.0        0        
C3        C        0.0        0.530303        0.0        0        
C4        C        0.025        0.484848        0.0        0        
C1        C        0.05        0.015152        0.0        0        
C2        C        0.075        0.060607        0.0        0        
C3        C        0.05        0.075757        0.0        0        
C4        C        0.075        0.030303        0.0        0        
C1        C        0.05        0.106061        0.0        0        
C2        C        0.075        0.151515        0.0        0        
C3        C        0.05        0.166666        0.0        0        
C4        C        0.075        0.121212        0.0        0        
C1        C        0.05        0.19697        0.0        0        
C2        C        0.075        0.242425        0.0        0        
C3        C        0.05        0.257576        0.0        0        
C4        C        0.075        0.212121        0.0        0        
C1        C        0.05        0.287879        0.0        0        
C2        C        0.075        0.333334        0.0        0        
C3        C        0.05        0.348484        0.0        0        
C4        C        0.075        0.30303        0.0        0        
C1        C        0.05        0.378788        0.0        0        
C2        C        0.075        0.424243        0.0        0        
C3        C        0.05        0.439394        0.0        0        
C4        C        0.075        0.393939        0.0        0        
C1        C        0.05        0.469697        0.0        0        
C2        C        0.075        0.515152        0.0        0        
C3        C        0.05        0.530303        0.0        0        
C4        C        0.075        0.484848        0.0        0        
C1        C        0.1        0.015152        0.0        0        
C2        C        0.125        0.060607        0.0        0        
C3        C        0.1        0.075757        0.0        0        
C4        C        0.125        0.030303        0.0        0        
C1        C        0.1        0.106061        0.0        0        
C2        C        0.125        0.151515        0.0        0        
C3        C        0.1        0.166666        0.0        0        
C4        C        0.125        0.121212        0.0        0        
C1        C        0.1        0.19697        0.0        0        
C2        C        0.125        0.242425        0.0        0        
C3        C        0.1        0.257576        0.0        0        
C4        C        0.125        0.212121        0.0        0        
C1        C        0.1        0.287879        0.0        0        
C2        C        0.125        0.333334        0.0        0        
C3        C        0.1        0.348484        0.0        0        
C4        C        0.125        0.30303        0.0        0        
C1        C        0.1        0.378788        0.0        0        
C2        C        0.125        0.424243        0.0        0        
C3        C        0.1        0.439394        0.0        0        
C4        C        0.125        0.393939        0.0        0        
C1        C        0.1        0.469697        0.0        0        
C2        C        0.125        0.515152        0.0        0        
C3        C        0.1        0.530303        0.0        0        
C4        C        0.125        0.484848        0.0        0        
C1        C        0.15        0.015152        0.0        0        
C2        C        0.175        0.060607        0.0        0        
C3        C        0.15        0.075757        0.0        0        
C4        C        0.175        0.030303        0.0        0        
C1        C        0.15        0.106061        0.0        0        
C2        C        0.175        0.151515        0.0        0        
C3        C        0.15        0.166666        0.0        0        
C4        C        0.175        0.121212        0.0        0        
C1        C        0.15        0.19697        0.0        0        
C2        C        0.175        0.242425        0.0        0        
C3        C        0.15        0.257576        0.0        0        
C4        C        0.175        0.212121        0.0        0        
C1        C        0.15        0.287879        0.0        0        
C2        C        0.175        0.333334        0.0        0        
C3        C        0.15        0.348484        0.0        0        
C4        C        0.175        0.30303        0.0        0        
C1        C        0.15        0.378788        0.0        0        
C2        C        0.175        0.424243        0.0        0        
C3        C        0.15        0.439394        0.0        0        
C4        C        0.175        0.393939        0.0        0        
C1        C        0.15        0.469697        0.0        0        
C2        C        0.175        0.515152        0.0        0        
C3        C        0.15        0.530303        0.0        0        
C4        C        0.175        0.484848        0.0        0        
C1        C        0.2        0.015152        0.0        0        
C2        C        0.225        0.060607        0.0        0        
C3        C        0.2        0.075757        0.0        0        
C4        C        0.225        0.030303        0.0        0        
C1        C        0.2        0.106061        0.0        0        
C2        C        0.225        0.151515        0.0        0        
C3        C        0.2        0.166666        0.0        0        
C4        C        0.225        0.121212        0.0        0        
C1        C        0.2        0.19697        0.0        0        
C2        C        0.225        0.242425        0.0        0        
C3        C        0.2        0.257576        0.0        0        
C4        C        0.225        0.212121        0.0        0        
C1        C        0.2        0.287879        0.0        0        
C2        C        0.225        0.333334        0.0        0        
C3        C        0.2        0.348484        0.0        0        
C4        C        0.225        0.30303        0.0        0        
C1        C        0.2        0.378788        0.0        0        
C2        C        0.225        0.424243        0.0        0        
C3        C        0.2        0.439394        0.0        0        
C4        C        0.225        0.393939        0.0        0        
C1        C        0.2        0.469697        0.0        0        
C2        C        0.225        0.515152        0.0        0        
C3        C        0.2        0.530303        0.0        0        
C4        C        0.225        0.484848        0.0        0        
C1        C        0.25        0.015152        0.0        0        
C2        C        0.275        0.060607        0.0        0        
C3        C        0.25        0.075757        0.0        0        
C4        C        0.275        0.030303        0.0        0        
C1        C        0.25        0.106061        0.0        0        
C2        C        0.275        0.151515        0.0        0        
C3        C        0.25        0.166666        0.0        0        
C4        C        0.275        0.121212        0.0        0        
C1        C        0.25        0.19697        0.0        0        
C2        C        0.275        0.242425        0.0        0        
C3        C        0.25        0.257576        0.0        0        
C4        C        0.275        0.212121        0.0        0        
C1        C        0.25        0.287879        0.0        0        
C2        C        0.275        0.333334        0.0        0        
C3        C        0.25        0.348484        0.0        0        
C4        C        0.275        0.30303        0.0        0        
C1        C        0.25        0.378788        0.0        0        
C2        C        0.275        0.424243        0.0        0        
C3        C        0.25        0.439394        0.0        0        
C4        C        0.275        0.393939        0.0        0        
C1        C        0.25        0.469697        0.0        0        
C2        C        0.275        0.515152        0.0        0        
C3        C        0.25        0.530303        0.0        0        
C4        C        0.275        0.484848        0.0        0        
C1        C        0.3        0.015152        0.0        0        
C2        C        0.325        0.060607        0.0        0        
C3        C        0.3        0.075757        0.0        0        
C4        C        0.325        0.030303        0.0        0        
C1        C        0.3        0.106061        0.0        0        
C2        C        0.325        0.151515        0.0        0        
C3        C        0.3        0.166666        0.0        0        
C4        C        0.325        0.121212        0.0        0        
C1        C        0.3        0.19697        0.0        0        
C2        C        0.325        0.242425        0.0        0        
C3        C        0.3        0.257576        0.0        0        
C4        C        0.325        0.212121        0.0        0        
C1        C        0.3        0.287879        0.0        0        
C2        C        0.325        0.333334        0.0        0        
C3        C        0.3        0.348484        0.0        0        
C4        C        0.325        0.30303        0.0        0        
C1        C        0.3        0.378788        0.0        0        
C2        C        0.325        0.424243        0.0        0        
C3        C        0.3        0.439394        0.0        0        
C4        C        0.325        0.393939        0.0        0        
C1        C        0.3        0.469697        0.0        0        
C2        C        0.325        0.515152        0.0        0        
C3        C        0.3        0.530303        0.0        0        
C4        C        0.325        0.484848        0.0        0        
C1        C        0.35        0.015152        0.0        0        
C2        C        0.375        0.060607        0.0        0        
C3        C        0.35        0.075757        0.0        0        
C4        C        0.375        0.030303        0.0        0        
C1        C        0.35        0.106061        0.0        0        
C2        C        0.375        0.151515        0.0        0        
C3        C        0.35        0.166666        0.0        0        
C4        C        0.375        0.121212        0.0        0        
C1        C        0.35        0.19697        0.0        0        
C2        C        0.375        0.242425        0.0        0        
C3        C        0.35        0.257576        0.0        0        
C4        C        0.375        0.212121        0.0        0        
C1        C        0.35        0.287879        0.0        0        
C2        C        0.375        0.333334        0.0        0        
C3        C        0.35        0.348484        0.0        0        
C4        C        0.375        0.30303        0.0        0        
C1        C        0.35        0.378788        0.0        0        
C2        C        0.375        0.424243        0.0        0        
C3        C        0.35        0.439394        0.0        0        
C4        C        0.375        0.393939        0.0        0        
C1        C        0.35        0.469697        0.0        0        
C2        C        0.375        0.515152        0.0        0        
C3        C        0.35        0.530303        0.0        0        
C4        C        0.375        0.484848        0.0        0        
C1        C        0.4        0.015152        0.0        0        
C2        C        0.425        0.060607        0.0        0        
C3        C        0.4        0.075757        0.0        0        
C4        C        0.425        0.030303        0.0        0        
C1        C        0.4        0.106061        0.0        0        
C2        C        0.425        0.151515        0.0        0        
C3        C        0.4        0.166666        0.0        0        
C4        C        0.425        0.121212        0.0        0        
C1        C        0.4        0.19697        0.0        0        
C2        C        0.425        0.242425        0.0        0        
C3        C        0.4        0.257576        0.0        0        
C4        C        0.425        0.212121        0.0        0        
C1        C        0.4        0.287879        0.0        0        
C2        C        0.425        0.333334        0.0        0        
C3        C        0.4        0.348484        0.0        0        
C4        C        0.425        0.30303        0.0        0        
C1        C        0.4        0.378788        0.0        0        
C2        C        0.425        0.424243        0.0        0        
C3        C        0.4        0.439394        0.0        0        
C4        C        0.425        0.393939        0.0        0        
C1        C        0.4        0.469697        0.0        0        
C2        C        0.425        0.515152        0.0        0        
C3        C        0.4        0.530303        0.0        0        
C4        C        0.425        0.484848        0.0        0        
C1        C        0.45        0.015152        0.0        0        
C2        C        0.475        0.060607        0.0        0        
C3        C        0.45        0.075757        0.0        0        
C4        C        0.475        0.030303        0.0        0        
C1        C        0.45        0.106061        0.0        0        
C2        C        0.475        0.151515        0.0        0        
C3        C        0.45        0.166666        0.0        0        
C4        C        0.475        0.121212        0.0        0        
C1        C        0.45        0.19697        0.0        0        
C2        C        0.475        0.242425        0.0        0        
C3        C        0.45        0.257576        0.0        0        
C4        C        0.475        0.212121        0.0        0        
C1        C        0.45        0.287879        0.0        0        
C2        C        0.475        0.333334        0.0        0        
C3        C        0.45        0.348484        0.0        0        
C4        C        0.475        0.30303        0.0        0        
C1        C        0.45        0.378788        0.0        0        
C2        C        0.475        0.424243        0.0        0        
C3        C        0.45        0.439394        0.0        0        
C4        C        0.475        0.393939        0.0        0        
C1        C        0.45        0.469697        0.0        0        
C2        C        0.475        0.515152        0.0        0        
C3        C        0.45        0.530303        0.0        0        
C4        C        0.475        0.484848        0.0        0        
C1        C        0.5        0.015152        0.0        0        
C2        C        0.525        0.060607        0.0        0        
C3        C        0.5        0.075757        0.0        0        
C4        C        0.525        0.030303        0.0        0        
C1        C        0.5        0.106061        0.0        0        
C2        C        0.525        0.151515        0.0        0        
C3        C        0.5        0.166666        0.0        0        
C4        C        0.525        0.121212        0.0        0        
C1        C        0.5        0.19697        0.0        0        
C2        C        0.525        0.242425        0.0        0        
C3        C        0.5        0.257576        0.0        0        
C4        C        0.525        0.212121        0.0        0        
C1        C        0.5        0.287879        0.0        0        
C2        C        0.525        0.333334        0.0        0        
C3        C        0.5        0.348484        0.0        0        
C4        C        0.525        0.30303        0.0        0        
C1        C        0.5        0.378788        0.0        0        
C2        C        0.525        0.424243        0.0        0        
C3        C        0.5        0.439394        0.0        0        
C4        C        0.525        0.393939        0.0        0        
C1        C        0.5        0.469697        0.0        0        
C2        C        0.525        0.515152        0.0        0        
C3        C        0.5        0.530303        0.0        0        
C4        C        0.525        0.484848        0.0        0        
C1        C        0.55        0.015152        0.0        0        
C2        C        0.575        0.060607        0.0        0        
C3        C        0.55        0.075757        0.0        0        
C4        C        0.575        0.030303        0.0        0        
C1        C        0.55        0.106061        0.0        0        
C2        C        0.575        0.151515        0.0        0        
C3        C        0.55        0.166666        0.0        0        
C4        C        0.575        0.121212        0.0        0        
C1        C        0.55        0.19697        0.0        0        
C2        C        0.575        0.242425        0.0        0        
C3        C        0.55        0.257576        0.0        0        
C4        C        0.575        0.212121        0.0        0        
C1        C        0.55        0.287879        0.0        0        
C2        C        0.575        0.333334        0.0        0        
C3        C        0.55        0.348484        0.0        0        
C4        C        0.575        0.30303        0.0        0        
C1        C        0.55        0.378788        0.0        0        
C2        C        0.575        0.424243        0.0        0        
C3        C        0.55        0.439394        0.0        0        
C4        C        0.575        0.393939        0.0        0        
C1        C        0.55        0.469697        0.0        0        
C2        C        0.575        0.515152        0.0        0        
C3        C        0.55        0.530303        0.0        0        
C4        C        0.575        0.484848        0.0        0        
C1        C        0.6        0.015152        0.0        0        
C2        C        0.625        0.060607        0.0        0        
C3        C        0.6        0.075757        0.0        0        
C4        C        0.625        0.030303        0.0        0        
C1        C        0.6        0.106061        0.0        0        
C2        C        0.625        0.151515        0.0        0        
C3        C        0.6        0.166666        0.0        0        
C4        C        0.625        0.121212        0.0        0        
C1        C        0.6        0.19697        0.0        0        
C2        C        0.625        0.242425        0.0        0        
C3        C        0.6        0.257576        0.0        0        
C4        C        0.625        0.212121        0.0        0        
C1        C        0.6        0.287879        0.0        0        
C2        C        0.625        0.333334        0.0        0        
C3        C        0.6        0.348484        0.0        0        
C4        C        0.625        0.30303        0.0        0        
C1        C        0.6        0.378788        0.0        0        
C2        C        0.625        0.424243        0.0        0        
C3        C        0.6        0.439394        0.0        0        
C4        C        0.625        0.393939        0.0        0        
C1        C        0.6        0.469697        0.0        0        
C2        C        0.625        0.515152        0.0        0        
C3        C        0.6        0.530303        0.0        0        
C4        C        0.625        0.484848        0.0        0        
C1        C        0.65        0.015152        0.0        0        
C2        C        0.675        0.060607        0.0        0        
C3        C        0.65        0.075757        0.0        0        
C4        C        0.675        0.030303        0.0        0        
C1        C        0.65        0.106061        0.0        0        
C2        C        0.675        0.151515        0.0        0        
C3        C        0.65        0.166666        0.0        0        
C4        C        0.675        0.121212        0.0        0        
C1        C        0.65        0.19697        0.0        0        
C2        C        0.675        0.242425        0.0        0        
C3        C        0.65        0.257576        0.0        0        
C4        C        0.675        0.212121        0.0        0        
C1        C        0.65        0.287879        0.0        0        
C2        C        0.675        0.333334        0.0        0        
C3        C        0.65        0.348484        0.0        0        
C4        C        0.675        0.30303        0.0        0        
C1        C        0.65        0.378788        0.0        0        
C2        C        0.675        0.424243        0.0        0        
C3        C        0.65        0.439394        0.0        0        
C4        C        0.675        0.393939        0.0        0        
C1        C        0.65        0.469697        0.0        0        
C2        C        0.675        0.515152        0.0        0        
C3        C        0.65        0.530303        0.0        0        
C4        C        0.675        0.484848        0.0        0        
C1        C        0.7        0.015152        0.0        0        
C2        C        0.725        0.060607        0.0        0        
C3        C        0.7        0.075757        0.0        0        
C4        C        0.725        0.030303        0.0        0        
C1        C        0.7        0.106061        0.0        0        
C2        C        0.725        0.151515        0.0        0        
C3        C        0.7        0.166666        0.0        0        
C4        C        0.725        0.121212        0.0        0        
C1        C        0.7        0.19697        0.0        0        
C2        C        0.725        0.242425        0.0        0        
C3        C        0.7        0.257576        0.0        0        
C4        C        0.725        0.212121        0.0        0        
C1        C        0.7        0.287879        0.0        0        
C2        C        0.725        0.333334        0.0        0        
C3        C        0.7        0.348484        0.0        0        
C4        C        0.725        0.30303        0.0        0        
C1        C        0.7        0.378788        0.0        0        
C2        C        0.725        0.424243        0.0        0        
C3        C        0.7        0.439394        0.0        0        
C4        C        0.725        0.393939        0.0        0        
C1        C        0.7        0.469697        0.0        0        
C2        C        0.725        0.515152        0.0        0        
C3        C        0.7        0.530303        0.0        0        
C4        C        0.725        0.484848        0.0        0        
C1        C        0.75        0.015152        0.0        0        
C2        C        0.775        0.060607        0.0        0        
C3        C        0.75        0.075757        0.0        0        
C4        C        0.775        0.030303        0.0        0        
C1        C        0.75        0.106061        0.0        0        
C2        C        0.775        0.151515        0.0        0        
C3        C        0.75        0.166666        0.0        0        
C4        C        0.775        0.121212        0.0        0        
C1        C        0.75        0.19697        0.0        0        
C2        C        0.775        0.242425        0.0        0        
C3        C        0.75        0.257576        0.0        0        
C4        C        0.775        0.212121        0.0        0        
C1        C        0.75        0.287879        0.0        0        
C2        C        0.775        0.333334        0.0        0        
C3        C        0.75        0.348484        0.0        0        
C4        C        0.775        0.30303        0.0        0        
C1        C        0.75        0.378788        0.0        0        
C2        C        0.775        0.424243        0.0        0        
C3        C        0.75        0.439394        0.0        0        
C4        C        0.775        0.393939        0.0        0        
C1        C        0.75        0.469697        0.0        0        
C2        C        0.775        0.515152        0.0        0        
C3        C        0.75        0.530303        0.0        0        
C4        C        0.775        0.484848        0.0        0        
C1        C        0.8        0.015152        0.0        0        
C3        C        0.8        0.075757        0.0        0        
C1        C        0.8        0.106061        0.0        0        
C3        C        0.8        0.166666        0.0        0        
C1        C        0.8        0.19697        0.0        0        
C3        C        0.8        0.257576        0.0        0        
C1        C        0.8        0.287879        0.0        0        
C3        C        0.8        0.348484        0.0        0        
C1        C        0.8        0.378788        0.0        0        
C3        C        0.8        0.439394        0.0        0        
C1        C        0.8        0.469697        0.0        0        
C3        C        0.8        0.530303        0.0        0        
C2        C        0.825        0.060607        0.0        0        
C4        C        0.825        0.030303        0.0        0        
C2        C        0.825        0.151515        0.0        0        
C4        C        0.825        0.121212        0.0        0        
C2        C        0.825        0.242425        0.0        0        
C4        C        0.825        0.212121        0.0        0        
C2        C        0.825        0.333334        0.0        0        
C4        C        0.825        0.30303        0.0        0        
C2        C        0.825        0.424243        0.0        0        
C4        C        0.825        0.393939        0.0        0        
C2        C        0.825        0.515152        0.0        0        
C4        C        0.825        0.484848        0.0        0        
C1        C        0.85        0.015152        0.0        0        
C3        C        0.85        0.075757        0.0        0        
C1        C        0.85        0.106061        0.0        0        
C3        C        0.85        0.166666        0.0        0        
C1        C        0.85        0.19697        0.0        0        
C3        C        0.85        0.257576        0.0        0        
C1        C        0.85        0.287879        0.0        0        
C3        C        0.85        0.348484        0.0        0        
C1        C        0.85        0.378788        0.0        0        
C3        C        0.85        0.439394        0.0        0        
C1        C        0.85        0.469697        0.0        0        
C3        C        0.85        0.530303        0.0        0        
C2        C        0.875        0.060607        0.0        0        
C4        C        0.875        0.030303        0.0        0        
C2        C        0.875        0.151515        0.0        0        
C4        C        0.875        0.121212        0.0        0        
C2        C        0.875        0.242425        0.0        0        
C4        C        0.875        0.212121        0.0        0        
C2        C        0.875        0.333334        0.0        0        
C4        C        0.875        0.30303        0.0        0        
C2        C        0.875        0.424243        0.0        0        
C4        C        0.875        0.393939        0.0        0        
C2        C        0.875        0.515152        0.0        0        
C4        C        0.875        0.484848        0.0        0        
C1        C        0.9        0.015152        0.0        0        
C3        C        0.9        0.075757        0.0        0        
C1        C        0.9        0.106061        0.0        0        
C3        C        0.9        0.166666        0.0        0        
C1        C        0.9        0.19697        0.0        0        
C3        C        0.9        0.257576        0.0        0        
C1        C        0.9        0.287879        0.0        0        
C3        C        0.9        0.348484        0.0        0        
C1        C        0.9        0.378788        0.0        0        
C3        C        0.9        0.439394        0.0        0        
C1        C        0.9        0.469697        0.0        0        
C3        C        0.9        0.530303        0.0        0        
C2        C        0.925        0.060607        0.0        0        
C4        C        0.925        0.030303        0.0        0        
C2        C        0.925        0.151515        0.0        0        
C4        C        0.925        0.121212        0.0        0        
C2        C        0.925        0.242425        0.0        0        
C4        C        0.925        0.212121        0.0        0        
C2        C        0.925        0.333334        0.0        0        
C4        C        0.925        0.30303        0.0        0        
C2        C        0.925        0.424243        0.0        0        
C4        C        0.925        0.393939        0.0        0        
C2        C        0.925        0.515152        0.0        0        
C4        C        0.925        0.484848        0.0        0        
C1        C        0.95        0.015152        0.0        0        
C3        C        0.95        0.075757        0.0        0        
C1        C        0.95        0.106061        0.0        0        
C3        C        0.95        0.166666        0.0        0        
C1        C        0.95        0.19697        0.0        0        
C3        C        0.95        0.257576        0.0        0        
C1        C        0.95        0.287879        0.0        0        
C3        C        0.95        0.348484        0.0        0        
C1        C        0.95        0.378788        0.0        0        
C3        C        0.95        0.439394        0.0        0        
C1        C        0.95        0.469697        0.0        0        
C3        C        0.95        0.530303        0.0        0        
C2        C        0.975        0.060607        0.0        0        
C4        C        0.975        0.030303        0.0        0        
C2        C        0.975        0.151515        0.0        0        
C4        C        0.975        0.121212        0.0        0        
C2        C        0.975        0.242425        0.0        0        
C4        C        0.975        0.212121        0.0        0        
C2        C        0.975        0.333334        0.0        0        
C4        C        0.975        0.30303        0.0        0        
C2        C        0.975        0.424243        0.0        0        
C4        C        0.975        0.393939        0.0        0        
C2        C        0.975        0.515152        0.0        0        
C4        C        0.975        0.484848        0.0        0        
C1        C        0.0        0.560607        0.0        0        
C1        C        0.05        0.560607        0.0        0        
C1        C        0.1        0.560607        0.0        0        
C1        C        0.15        0.560607        0.0        0        
C1        C        0.2        0.560607        0.0        0        
C1        C        0.25        0.560607        0.0        0        
C1        C        0.3        0.560607        0.0        0        
C1        C        0.35        0.560607        0.0        0        
C1        C        0.4        0.560607        0.0        0        
C1        C        0.45        0.560607        0.0        0        
C1        C        0.5        0.560607        0.0        0        
C1        C        0.55        0.560607        0.0        0        
C1        C        0.6        0.560607        0.0        0        
C1        C        0.65        0.560607        0.0        0        
C1        C        0.7        0.560607        0.0        0        
C1        C        0.75        0.560607        0.0        0        
C1        C        0.8        0.560607        0.0        0        
C1        C        0.85        0.560607        0.0        0        
C1        C        0.9        0.560607        0.0        0        
C1        C        0.95        0.560607        0.0        0        
C2        C        0.025        0.606061        0.0        0        
C2        C        0.075        0.606061        0.0        0        
C2        C        0.125        0.606061        0.0        0        
C2        C        0.175        0.606061        0.0        0        
C2        C        0.225        0.606061        0.0        0        
C2        C        0.275        0.606061        0.0        0        
C2        C        0.325        0.606061        0.0        0        
C2        C        0.375        0.606061        0.0        0        
C2        C        0.425        0.606061        0.0        0        
C2        C        0.475        0.606061        0.0        0        
C2        C        0.525        0.606061        0.0        0        
C2        C        0.575        0.606061        0.0        0        
C2        C        0.625        0.606061        0.0        0        
C2        C        0.675        0.606061        0.0        0        
C2        C        0.725        0.606061        0.0        0        
C2        C        0.775        0.606061        0.0        0        
C2        C        0.825        0.606061        0.0        0        
C2        C        0.875        0.606061        0.0        0        
C2        C        0.925        0.606061        0.0        0        
C2        C        0.975        0.606061        0.0        0        
C3        C        0.0        0.621212        0.0        0        
C3        C        0.05        0.621212        0.0        0        
C3        C        0.1        0.621212        0.0        0        
C3        C        0.15        0.621212        0.0        0        
C3        C        0.2        0.621212        0.0        0        
C3        C        0.25        0.621212        0.0        0        
C3        C        0.3        0.621212        0.0        0        
C3        C        0.35        0.621212        0.0        0        
C3        C        0.4        0.621212        0.0        0        
C3        C        0.45        0.621212        0.0        0        
C3        C        0.5        0.621212        0.0        0        
C3        C        0.55        0.621212        0.0        0        
C3        C        0.6        0.621212        0.0        0        
C3        C        0.65        0.621212        0.0        0        
C3        C        0.7        0.621212        0.0        0        
C3        C        0.75        0.621212        0.0        0        
C3        C        0.8        0.621212        0.0        0        
C3        C        0.85        0.621212        0.0        0        
C3        C        0.9        0.621212        0.0        0        
C3        C        0.95        0.621212        0.0        0        
C4        C        0.025        0.575757        0.0        0        
C4        C        0.075        0.575757        0.0        0        
C4        C        0.125        0.575757        0.0        0        
C4        C        0.175        0.575757        0.0        0        
C4        C        0.225        0.575757        0.0        0        
C4        C        0.275        0.575757        0.0        0        
C4        C        0.325        0.575757        0.0        0        
C4        C        0.375        0.575757        0.0        0        
C4        C        0.425        0.575757        0.0        0        
C4        C        0.475        0.575757        0.0        0        
C4        C        0.525        0.575757        0.0        0        
C4        C        0.575        0.575757        0.0        0        
C4        C        0.625        0.575757        0.0        0        
C4        C        0.675        0.575757        0.0        0        
C4        C        0.725        0.575757        0.0        0        
C4        C        0.775        0.575757        0.0        0        
C4        C        0.825        0.575757        0.0        0        
C4        C        0.875        0.575757        0.0        0        
C4        C        0.925        0.575757        0.0        0        
C4        C        0.975        0.575757        0.0        0        
C1        C        0.0        0.651516        0.0        0        
C1        C        0.05        0.651516        0.0        0        
C1        C        0.1        0.651516        0.0        0        
C1        C        0.15        0.651516        0.0        0        
C1        C        0.2        0.651516        0.0        0        
C1        C        0.25        0.651516        0.0        0        
C1        C        0.3        0.651516        0.0        0        
C1        C        0.35        0.651516        0.0        0        
C1        C        0.4        0.651516        0.0        0        
C1        C        0.45        0.651516        0.0        0        
C1        C        0.5        0.651516        0.0        0        
C1        C        0.55        0.651516        0.0        0        
C1        C        0.6        0.651516        0.0        0        
C1        C        0.65        0.651516        0.0        0        
C1        C        0.7        0.651516        0.0        0        
C1        C        0.75        0.651516        0.0        0        
C1        C        0.8        0.651516        0.0        0        
C1        C        0.85        0.651516        0.0        0        
C1        C        0.9        0.651516        0.0        0        
C1        C        0.95        0.651516        0.0        0        
C2        C        0.025        0.69697        0.0        0        
C2        C        0.075        0.69697        0.0        0        
C2        C        0.125        0.69697        0.0        0        
C2        C        0.175        0.69697        0.0        0        
C2        C        0.225        0.69697        0.0        0        
C2        C        0.275        0.69697        0.0        0        
C2        C        0.325        0.69697        0.0        0        
C2        C        0.375        0.69697        0.0        0        
C2        C        0.425        0.69697        0.0        0        
C2        C        0.475        0.69697        0.0        0        
C2        C        0.525        0.69697        0.0        0        
C2        C        0.575        0.69697        0.0        0        
C2        C        0.625        0.69697        0.0        0        
C2        C        0.675        0.69697        0.0        0        
C2        C        0.725        0.69697        0.0        0        
C2        C        0.775        0.69697        0.0        0        
C2        C        0.825        0.69697        0.0        0        
C2        C        0.875        0.69697        0.0        0        
C2        C        0.925        0.69697        0.0        0        
C2        C        0.975        0.69697        0.0        0        
C3        C        0.0        0.712121        0.0        0        
C3        C        0.05        0.712121        0.0        0        
C3        C        0.1        0.712121        0.0        0        
C3        C        0.15        0.712121        0.0        0        
C3        C        0.2        0.712121        0.0        0        
C3        C        0.25        0.712121        0.0        0        
C3        C        0.3        0.712121        0.0        0        
C3        C        0.35        0.712121        0.0        0        
C3        C        0.4        0.712121        0.0        0        
C3        C        0.45        0.712121        0.0        0        
C3        C        0.5        0.712121        0.0        0        
C3        C        0.55        0.712121        0.0        0        
C3        C        0.6        0.712121        0.0        0        
C3        C        0.65        0.712121        0.0        0        
C3        C        0.7        0.712121        0.0        0        
C3        C        0.75        0.712121        0.0        0        
C3        C        0.8        0.712121        0.0        0        
C3        C        0.85        0.712121        0.0        0        
C3        C        0.9        0.712121        0.0        0        
C3        C        0.95        0.712121        0.0        0        
C4        C        0.025        0.666666        0.0        0        
C4        C        0.075        0.666666        0.0        0        
C4        C        0.125        0.666666        0.0        0        
C4        C        0.175        0.666666        0.0        0        
C4        C        0.225        0.666666        0.0        0        
C4        C        0.275        0.666666        0.0        0        
C4        C        0.325        0.666666        0.0        0        
C4        C        0.375        0.666666        0.0        0        
C4        C        0.425        0.666666        0.0        0        
C4        C        0.475        0.666666        0.0        0        
C4        C        0.525        0.666666        0.0        0        
C4        C        0.575        0.666666        0.0        0        
C4        C        0.625        0.666666        0.0        0        
C4        C        0.675        0.666666        0.0        0        
C4        C        0.725        0.666666        0.0        0        
C4        C        0.775        0.666666        0.0        0        
C4        C        0.825        0.666666        0.0        0        
C4        C        0.875        0.666666        0.0        0        
C4        C        0.925        0.666666        0.0        0        
C4        C        0.975        0.666666        0.0        0        
C1        C        0.0        0.742425        0.0        0        
C1        C        0.05        0.742425        0.0        0        
C1        C        0.1        0.742425        0.0        0        
C1        C        0.15        0.742425        0.0        0        
C1        C        0.2        0.742425        0.0        0        
C1        C        0.25        0.742425        0.0        0        
C1        C        0.3        0.742425        0.0        0        
C1        C        0.35        0.742425        0.0        0        
C1        C        0.4        0.742425        0.0        0        
C1        C        0.45        0.742425        0.0        0        
C1        C        0.5        0.742425        0.0        0        
C1        C        0.55        0.742425        0.0        0        
C1        C        0.6        0.742425        0.0        0        
C1        C        0.65        0.742425        0.0        0        
C1        C        0.7        0.742425        0.0        0        
C1        C        0.75        0.742425        0.0        0        
C1        C        0.8        0.742425        0.0        0        
C1        C        0.85        0.742425        0.0        0        
C1        C        0.9        0.742425        0.0        0        
C1        C        0.95        0.742425        0.0        0        
C2        C        0.025        0.787879        0.0        0        
C2        C        0.075        0.787879        0.0        0        
C2        C        0.125        0.787879        0.0        0        
C2        C        0.175        0.787879        0.0        0        
C2        C        0.225        0.787879        0.0        0        
C2        C        0.275        0.787879        0.0        0        
C2        C        0.325        0.787879        0.0        0        
C2        C        0.375        0.787879        0.0        0        
C2        C        0.425        0.787879        0.0        0        
C2        C        0.475        0.787879        0.0        0        
C2        C        0.525        0.787879        0.0        0        
C2        C        0.575        0.787879        0.0        0        
C2        C        0.625        0.787879        0.0        0        
C2        C        0.675        0.787879        0.0        0        
C2        C        0.725        0.787879        0.0        0        
C2        C        0.775        0.787879        0.0        0        
C2        C        0.825        0.787879        0.0        0        
C2        C        0.875        0.787879        0.0        0        
C2        C        0.925        0.787879        0.0        0        
C2        C        0.975        0.787879        0.0        0        
C3        C        0.0        0.80303        0.0        0        
C3        C        0.05        0.80303        0.0        0        
C3        C        0.1        0.80303        0.0        0        
C3        C        0.15        0.80303        0.0        0        
C3        C        0.2        0.80303        0.0        0        
C3        C        0.25        0.80303        0.0        0        
C3        C        0.3        0.80303        0.0        0        
C3        C        0.35        0.80303        0.0        0        
C3        C        0.4        0.80303        0.0        0        
C3        C        0.45        0.80303        0.0        0        
C3        C        0.5        0.80303        0.0        0        
C3        C        0.55        0.80303        0.0        0        
C3        C        0.6        0.80303        0.0        0        
C3        C        0.65        0.80303        0.0        0        
C3        C        0.7        0.80303        0.0        0        
C3        C        0.75        0.80303        0.0        0        
C3        C        0.8        0.80303        0.0        0        
C3        C        0.85        0.80303        0.0        0        
C3        C        0.9        0.80303        0.0        0        
C3        C        0.95        0.80303        0.0        0        
C4        C        0.025        0.757575        0.0        0        
C4        C        0.075        0.757575        0.0        0        
C4        C        0.125        0.757575        0.0        0        
C4        C        0.175        0.757575        0.0        0        
C4        C        0.225        0.757575        0.0        0        
C4        C        0.275        0.757575        0.0        0        
C4        C        0.325        0.757575        0.0        0        
C4        C        0.375        0.757575        0.0        0        
C4        C        0.425        0.757575        0.0        0        
C4        C        0.475        0.757575        0.0        0        
C4        C        0.525        0.757575        0.0        0        
C4        C        0.575        0.757575        0.0        0        
C4        C        0.625        0.757575        0.0        0        
C4        C        0.675        0.757575        0.0        0        
C4        C        0.725        0.757575        0.0        0        
C4        C        0.775        0.757575        0.0        0        
C4        C        0.825        0.757575        0.0        0        
C4        C        0.875        0.757575        0.0        0        
C4        C        0.925        0.757575        0.0        0        
C4        C        0.975        0.757575        0.0        0        
C1        C        0.0        0.833334        0.0        0        
C1        C        0.05        0.833334        0.0        0        
C1        C        0.1        0.833334        0.0        0        
C1        C        0.15        0.833334        0.0        0        
C1        C        0.2        0.833334        0.0        0        
C1        C        0.25        0.833334        0.0        0        
C1        C        0.3        0.833334        0.0        0        
C1        C        0.35        0.833334        0.0        0        
C1        C        0.4        0.833334        0.0        0        
C1        C        0.45        0.833334        0.0        0        
C1        C        0.5        0.833334        0.0        0        
C1        C        0.55        0.833334        0.0        0        
C1        C        0.6        0.833334        0.0        0        
C1        C        0.65        0.833334        0.0        0        
C1        C        0.7        0.833334        0.0        0        
C1        C        0.75        0.833334        0.0        0        
C1        C        0.8        0.833334        0.0        0        
C1        C        0.85        0.833334        0.0        0        
C1        C        0.9        0.833334        0.0        0        
C1        C        0.95        0.833334        0.0        0        
C2        C        0.025        0.878788        0.0        0        
C2        C        0.075        0.878788        0.0        0        
C2        C        0.125        0.878788        0.0        0        
C2        C        0.175        0.878788        0.0        0        
C2        C        0.225        0.878788        0.0        0        
C2        C        0.275        0.878788        0.0        0        
C2        C        0.325        0.878788        0.0        0        
C2        C        0.375        0.878788        0.0        0        
C2        C        0.425        0.878788        0.0        0        
C2        C        0.475        0.878788        0.0        0        
C2        C        0.525        0.878788        0.0        0        
C2        C        0.575        0.878788        0.0        0        
C2        C        0.625        0.878788        0.0        0        
C2        C        0.675        0.878788        0.0        0        
C2        C        0.725        0.878788        0.0        0        
C2        C        0.775        0.878788        0.0        0        
C2        C        0.825        0.878788        0.0        0        
C2        C        0.875        0.878788        0.0        0        
C2        C        0.925        0.878788        0.0        0        
C2        C        0.975        0.878788        0.0        0        
C3        C        0.0        0.893939        0.0        0        
C3        C        0.05        0.893939        0.0        0        
C3        C        0.1        0.893939        0.0        0        
C3        C        0.15        0.893939        0.0        0        
C3        C        0.2        0.893939        0.0        0        
C3        C        0.25        0.893939        0.0        0        
C3        C        0.3        0.893939        0.0        0        
C3        C        0.35        0.893939        0.0        0        
C3        C        0.4        0.893939        0.0        0        
C3        C        0.45        0.893939        0.0        0        
C3        C        0.5        0.893939        0.0        0        
C3        C        0.55        0.893939        0.0        0        
C3        C        0.6        0.893939        0.0        0        
C3        C        0.65        0.893939        0.0        0        
C3        C        0.7        0.893939        0.0        0        
C3        C        0.75        0.893939        0.0        0        
C3        C        0.8        0.893939        0.0        0        
C3        C        0.85        0.893939        0.0        0        
C3        C        0.9        0.893939        0.0        0        
C3        C        0.95        0.893939        0.0        0        
C4        C        0.025        0.848484        0.0        0        
C4        C        0.075        0.848484        0.0        0        
C4        C        0.125        0.848484        0.0        0        
C4        C        0.175        0.848484        0.0        0        
C4        C        0.225        0.848484        0.0        0        
C4        C        0.275        0.848484        0.0        0        
C4        C        0.325        0.848484        0.0        0        
C4        C        0.375        0.848484        0.0        0        
C4        C        0.425        0.848484        0.0        0        
C4        C        0.475        0.848484        0.0        0        
C4        C        0.525        0.848484        0.0        0        
C4        C        0.575        0.848484        0.0        0        
C4        C        0.625        0.848484        0.0        0        
C4        C        0.675        0.848484        0.0        0        
C4        C        0.725        0.848484        0.0        0        
C4        C        0.775        0.848484        0.0        0        
C4        C        0.825        0.848484        0.0        0        
C4        C        0.875        0.848484        0.0        0        
C4        C        0.925        0.848484        0.0        0        
C4        C        0.975        0.848484        0.0        0        
C1        C        0.0        0.924243        0.0        0        
C1        C        0.05        0.924243        0.0        0        
C1        C        0.1        0.924243        0.0        0        
C1        C        0.15        0.924243        0.0        0        
C1        C        0.2        0.924243        0.0        0        
C1        C        0.25        0.924243        0.0        0        
C1        C        0.3        0.924243        0.0        0        
C1        C        0.35        0.924243        0.0        0        
C1        C        0.4        0.924243        0.0        0        
C1        C        0.45        0.924243        0.0        0        
C1        C        0.5        0.924243        0.0        0        
C1        C        0.55        0.924243        0.0        0        
C1        C        0.6        0.924243        0.0        0        
C1        C        0.65        0.924243        0.0        0        
C1        C        0.7        0.924243        0.0        0        
C1        C        0.75        0.924243        0.0        0        
C1        C        0.8        0.924243        0.0        0        
C1        C        0.85        0.924243        0.0        0        
C1        C        0.9        0.924243        0.0        0        
C1        C        0.95        0.924243        0.0        0        
C2        C        0.025        0.969697        0.0        0        
C2        C        0.075        0.969697        0.0        0        
C2        C        0.125        0.969697        0.0        0        
C2        C        0.175        0.969697        0.0        0        
C2        C        0.225        0.969697        0.0        0        
C2        C        0.275        0.969697        0.0        0        
C2        C        0.325        0.969697        0.0        0        
C2        C        0.375        0.969697        0.0        0        
C2        C        0.425        0.969697        0.0        0        
C2        C        0.475        0.969697        0.0        0        
C2        C        0.525        0.969697        0.0        0        
C2        C        0.575        0.969697        0.0        0        
C2        C        0.625        0.969697        0.0        0        
C2        C        0.675        0.969697        0.0        0        
C2        C        0.725        0.969697        0.0        0        
C2        C        0.775        0.969697        0.0        0        
C2        C        0.825        0.969697        0.0        0        
C2        C        0.875        0.969697        0.0        0        
C2        C        0.925        0.969697        0.0        0        
C2        C        0.975        0.969697        0.0        0        
C3        C        0.0        0.984848        0.0        0        
C3        C        0.05        0.984848        0.0        0        
C3        C        0.1        0.984848        0.0        0        
C3        C        0.15        0.984848        0.0        0        
C3        C        0.2        0.984848        0.0        0        
C3        C        0.25        0.984848        0.0        0        
C3        C        0.3        0.984848        0.0        0        
C3        C        0.35        0.984848        0.0        0        
C3        C        0.4        0.984848        0.0        0        
C3        C        0.45        0.984848        0.0        0        
C3        C        0.5        0.984848        0.0        0        
C3        C        0.55        0.984848        0.0        0        
C3        C        0.6        0.984848        0.0        0        
C3        C        0.65        0.984848        0.0        0        
C3        C        0.7        0.984848        0.0        0        
C3        C        0.75        0.984848        0.0        0        
C3        C        0.8        0.984848        0.0        0        
C3        C        0.85        0.984848        0.0        0        
C3        C        0.9        0.984848        0.0        0        
C3        C        0.95        0.984848        0.0        0        
C4        C        0.025        0.939394        0.0        0        
C4        C        0.075        0.939394        0.0        0        
C4        C        0.125        0.939394        0.0        0        
C4        C        0.175        0.939394        0.0        0        
C4        C        0.225        0.939394        0.0        0        
C4        C        0.275        0.939394        0.0        0        
C4        C        0.325        0.939394        0.0        0        
C4        C        0.375        0.939394        0.0        0        
C4        C        0.425        0.939394        0.0        0        
C4        C        0.475        0.939394        0.0        0        
C4        C        0.525        0.939394        0.0        0        
C4        C        0.575        0.939394        0.0        0        
C4        C        0.625        0.939394        0.0        0        
C4        C        0.675        0.939394        0.0        0        
C4        C        0.725        0.939394        0.0        0        
C4        C        0.775        0.939394        0.0        0        
C4        C        0.825        0.939394        0.0        0        
C4        C        0.875        0.939394        0.0        0        
C4        C        0.925        0.939394        0.0        0        
C4        C        0.975        0.939394        0.0        0        
