data_graphite_ortho

_audit_creation_method RASPA-1.0
_audit_creation_date 2012-2-3
_audit_author_name 'David Dubbeldam'

_cell_length_a    39.36    
_cell_length_b    38.34    
_cell_length_c    34.6    
_cell_angle_alpha 90
_cell_angle_beta  90
_cell_angle_gamma 90
_cell_volume      52213.56      

_symmetry_cell_setting          triclinic
_symmetry_space_group_name_Hall 'P 1'
_symmetry_space_group_name_H-M  'P 1'
_symmetry_Int_Tables_number     1

_symmetry_equiv_pos_as_xyz 'x,y,z'

loop_
_atom_site_label
_atom_site_type_symbol
_atom_site_fract_x
_atom_site_fract_y
_atom_site_fract_z
_atom_site_charge
C_Base_COOH        C        0.0        0.018519        0.06710228323699421        0.08        
C_Base_OH        C        0.03125        0.074075        0.06710228323699421        0.2        
C_Base_COOH        C        0.0        0.092592        0.06710228323699421        0.08        
C_Base_COOH        C        0.03125        0.037037        0.06710228323699421        0.08        
C_Base_COOH        C        0.0        0.12963        0.06710228323699421        0.08        
C_Base_OH        C        0.03125        0.185185        0.06710228323699421        0.2        
C_Base_CO        C        0.0        0.203703        0.06710228323699421        0.5        
C_Base_OH        C        0.03125        0.148148        0.06710228323699421        0.2        
C_Base_COOH        C        0.0        0.24074099999999998        0.06710228323699421        0.08        
C_Base_COOH        C        0.03125        0.296297        0.06710228323699421        0.08        
C_Base_OH        C        0.0        0.314815        0.06710228323699421        0.2        
C_Base_OH        C        0.03125        0.259259        0.06710228323699421        0.2        
C_Base_COOH        C        0.0        0.351852        0.06710228323699421        0.08        
C_Base_CO        C        0.03125        0.407408        0.06710228323699421        0.5        
C_Base_CO        C        0.0        0.42592500000000005        0.06710228323699421        0.5        
C_Base_COOH        C        0.03125        0.37037        0.06710228323699421        0.08        
C_Base_CO        C        0.0        0.46296300000000007        0.06710228323699421        0.5        
C_Base_CO        C        0.03125        0.518519        0.06710228323699421        0.5        
C_Base_COOH        C        0.0        0.537037        0.06710228323699421        0.08        
C_Base_CO        C        0.03125        0.481481        0.06710228323699421        0.5        
C_Base_OH        C        0.0        0.574075        0.06710228323699421        0.2        
C_Base_OH        C        0.03125        0.62963        0.06710228323699421        0.2        
C_Base_CO        C        0.0        0.648148        0.06710228323699421        0.5        
C_Base_COOH        C        0.03125        0.592592        0.06710228323699421        0.08        
C_Base_COOH        C        0.0625        0.018519        0.06710228323699421        0.08        
C_Base_OH        C        0.09375        0.074075        0.06710228323699421        0.2        
C_Base_COOH        C        0.0625        0.092592        0.06710228323699421        0.08        
C_Base_COOH        C        0.09375        0.037037        0.06710228323699421        0.08        
C_Base_COOH        C        0.0625        0.12963        0.06710228323699421        0.08        
C_Base_OH        C        0.09375        0.185185        0.06710228323699421        0.2        
C_Base_CO        C        0.0625        0.203703        0.06710228323699421        0.5        
C_Base_OH        C        0.09375        0.148148        0.06710228323699421        0.2        
C_Base_COOH        C        0.0625        0.24074099999999998        0.06710228323699421        0.08        
C_Base_COOH        C        0.09375        0.296297        0.06710228323699421        0.08        
C_Base_OH        C        0.0625        0.314815        0.06710228323699421        0.2        
C_Base_OH        C        0.09375        0.259259        0.06710228323699421        0.2        
C_Base_COOH        C        0.0625        0.351852        0.06710228323699421        0.08        
C_Base_CO        C        0.09375        0.407408        0.06710228323699421        0.5        
C_Base_CO        C        0.0625        0.42592500000000005        0.06710228323699421        0.5        
C_Base_COOH        C        0.09375        0.37037        0.06710228323699421        0.08        
C_Base_CO        C        0.0625        0.46296300000000007        0.06710228323699421        0.5        
C_Base_CO        C        0.09375        0.518519        0.06710228323699421        0.5        
C_Base_COOH        C        0.0625        0.537037        0.06710228323699421        0.08        
C_Base_CO        C        0.09375        0.481481        0.06710228323699421        0.5        
C_Base_OH        C        0.0625        0.574075        0.06710228323699421        0.2        
C_Base_OH        C        0.09375        0.62963        0.06710228323699421        0.2        
C_Base_CO        C        0.0625        0.648148        0.06710228323699421        0.5        
C_Base_COOH        C        0.09375        0.592592        0.06710228323699421        0.08        
C1        C        0.125        0.018519        0.06710228323699421        0        
C2        C        0.15625        0.074075        0.06710228323699421        0        
C3        C        0.125        0.092592        0.06710228323699421        0        
C4        C        0.15625        0.037037        0.06710228323699421        0        
C1        C        0.125        0.12963        0.06710228323699421        0        
C2        C        0.15625        0.185185        0.06710228323699421        0        
C3        C        0.125        0.203703        0.06710228323699421        0        
C4        C        0.15625        0.148148        0.06710228323699421        0        
C1        C        0.125        0.24074099999999998        0.06710228323699421        0        
C2        C        0.15625        0.296297        0.06710228323699421        0        
C3        C        0.125        0.314815        0.06710228323699421        0        
C4        C        0.15625        0.259259        0.06710228323699421        0        
C1        C        0.125        0.351852        0.06710228323699421        0        
C2        C        0.15625        0.407408        0.06710228323699421        0        
C3        C        0.125        0.42592500000000005        0.06710228323699421        0        
C4        C        0.15625        0.37037        0.06710228323699421        0        
C1        C        0.125        0.46296300000000007        0.06710228323699421        0        
C2        C        0.15625        0.518519        0.06710228323699421        0        
C3        C        0.125        0.537037        0.06710228323699421        0        
C4        C        0.15625        0.481481        0.06710228323699421        0        
C1        C        0.125        0.574075        0.06710228323699421        0        
C2        C        0.15625        0.62963        0.06710228323699421        0        
C3        C        0.125        0.648148        0.06710228323699421        0        
C4        C        0.15625        0.592592        0.06710228323699421        0        
C1        C        0.1875        0.018519        0.06710228323699421        0        
C2        C        0.21875        0.074075        0.06710228323699421        0        
C3        C        0.1875        0.092592        0.06710228323699421        0        
C4        C        0.21875        0.037037        0.06710228323699421        0        
C1        C        0.1875        0.12963        0.06710228323699421        0        
C2        C        0.21875        0.185185        0.06710228323699421        0        
C3        C        0.1875        0.203703        0.06710228323699421        0        
C4        C        0.21875        0.148148        0.06710228323699421        0        
C1        C        0.1875        0.24074099999999998        0.06710228323699421        0        
C2        C        0.21875        0.296297        0.06710228323699421        0        
C3        C        0.1875        0.314815        0.06710228323699421        0        
C4        C        0.21875        0.259259        0.06710228323699421        0        
C1        C        0.1875        0.351852        0.06710228323699421        0        
C2        C        0.21875        0.407408        0.06710228323699421        0        
C3        C        0.1875        0.42592500000000005        0.06710228323699421        0        
C4        C        0.21875        0.37037        0.06710228323699421        0        
C1        C        0.1875        0.46296300000000007        0.06710228323699421        0        
C2        C        0.21875        0.518519        0.06710228323699421        0        
C3        C        0.1875        0.537037        0.06710228323699421        0        
C4        C        0.21875        0.481481        0.06710228323699421        0        
C1        C        0.1875        0.574075        0.06710228323699421        0        
C2        C        0.21875        0.62963        0.06710228323699421        0        
C3        C        0.1875        0.648148        0.06710228323699421        0        
C4        C        0.21875        0.592592        0.06710228323699421        0        
C1        C        0.25        0.018519        0.06710228323699421        0        
C2        C        0.28125        0.074075        0.06710228323699421        0        
C3        C        0.25        0.092592        0.06710228323699421        0        
C4        C        0.28125        0.037037        0.06710228323699421        0        
C1        C        0.25        0.12963        0.06710228323699421        0        
C2        C        0.28125        0.185185        0.06710228323699421        0        
C3        C        0.25        0.203703        0.06710228323699421        0        
C4        C        0.28125        0.148148        0.06710228323699421        0        
C1        C        0.25        0.24074099999999998        0.06710228323699421        0        
C2        C        0.28125        0.296297        0.06710228323699421        0        
C3        C        0.25        0.314815        0.06710228323699421        0        
C4        C        0.28125        0.259259        0.06710228323699421        0        
C1        C        0.25        0.351852        0.06710228323699421        0        
C2        C        0.28125        0.407408        0.06710228323699421        0        
C3        C        0.25        0.42592500000000005        0.06710228323699421        0        
C4        C        0.28125        0.37037        0.06710228323699421        0        
C1        C        0.25        0.46296300000000007        0.06710228323699421        0        
C2        C        0.28125        0.518519        0.06710228323699421        0        
C3        C        0.25        0.537037        0.06710228323699421        0        
C4        C        0.28125        0.481481        0.06710228323699421        0        
C1        C        0.25        0.574075        0.06710228323699421        0        
C2        C        0.28125        0.62963        0.06710228323699421        0        
C3        C        0.25        0.648148        0.06710228323699421        0        
C4        C        0.28125        0.592592        0.06710228323699421        0        
C1        C        0.3125        0.018519        0.06710228323699421        0        
C2        C        0.34375        0.074075        0.06710228323699421        0        
C3        C        0.3125        0.092592        0.06710228323699421        0        
C4        C        0.34375        0.037037        0.06710228323699421        0        
C1        C        0.3125        0.12963        0.06710228323699421        0        
C2        C        0.34375        0.185185        0.06710228323699421        0        
C3        C        0.3125        0.203703        0.06710228323699421        0        
C4        C        0.34375        0.148148        0.06710228323699421        0        
C1        C        0.3125        0.24074099999999998        0.06710228323699421        0        
C2        C        0.34375        0.296297        0.06710228323699421        0        
C3        C        0.3125        0.314815        0.06710228323699421        0        
C4        C        0.34375        0.259259        0.06710228323699421        0        
C1        C        0.3125        0.351852        0.06710228323699421        0        
C2        C        0.34375        0.407408        0.06710228323699421        0        
C3        C        0.3125        0.42592500000000005        0.06710228323699421        0        
C4        C        0.34375        0.37037        0.06710228323699421        0        
C1        C        0.3125        0.46296300000000007        0.06710228323699421        0        
C2        C        0.34375        0.518519        0.06710228323699421        0        
C3        C        0.3125        0.537037        0.06710228323699421        0        
C4        C        0.34375        0.481481        0.06710228323699421        0        
C1        C        0.3125        0.574075        0.06710228323699421        0        
C2        C        0.34375        0.62963        0.06710228323699421        0        
C3        C        0.3125        0.648148        0.06710228323699421        0        
C4        C        0.34375        0.592592        0.06710228323699421        0        
C1        C        0.375        0.018519        0.06710228323699421        0        
C2        C        0.40625        0.074075        0.06710228323699421        0        
C3        C        0.375        0.092592        0.06710228323699421        0        
C4        C        0.40625        0.037037        0.06710228323699421        0        
C1        C        0.375        0.12963        0.06710228323699421        0        
C2        C        0.40625        0.185185        0.06710228323699421        0        
C3        C        0.375        0.203703        0.06710228323699421        0        
C4        C        0.40625        0.148148        0.06710228323699421        0        
C1        C        0.375        0.24074099999999998        0.06710228323699421        0        
C2        C        0.40625        0.296297        0.06710228323699421        0        
C3        C        0.375        0.314815        0.06710228323699421        0        
C4        C        0.40625        0.259259        0.06710228323699421        0        
C1        C        0.375        0.351852        0.06710228323699421        0        
C2        C        0.40625        0.407408        0.06710228323699421        0        
C3        C        0.375        0.42592500000000005        0.06710228323699421        0        
C4        C        0.40625        0.37037        0.06710228323699421        0        
C1        C        0.375        0.46296300000000007        0.06710228323699421        0        
C2        C        0.40625        0.518519        0.06710228323699421        0        
C3        C        0.375        0.537037        0.06710228323699421        0        
C4        C        0.40625        0.481481        0.06710228323699421        0        
C1        C        0.375        0.574075        0.06710228323699421        0        
C2        C        0.40625        0.62963        0.06710228323699421        0        
C3        C        0.375        0.648148        0.06710228323699421        0        
C4        C        0.40625        0.592592        0.06710228323699421        0        
C1        C        0.4375        0.018519        0.06710228323699421        0        
C2        C        0.46875        0.074075        0.06710228323699421        0        
C3        C        0.4375        0.092592        0.06710228323699421        0        
C4        C        0.46875        0.037037        0.06710228323699421        0        
C1        C        0.4375        0.12963        0.06710228323699421        0        
C2        C        0.46875        0.185185        0.06710228323699421        0        
C3        C        0.4375        0.203703        0.06710228323699421        0        
C4        C        0.46875        0.148148        0.06710228323699421        0        
C1        C        0.4375        0.24074099999999998        0.06710228323699421        0        
C2        C        0.46875        0.296297        0.06710228323699421        0        
C3        C        0.4375        0.314815        0.06710228323699421        0        
C4        C        0.46875        0.259259        0.06710228323699421        0        
C1        C        0.4375        0.351852        0.06710228323699421        0        
C2        C        0.46875        0.407408        0.06710228323699421        0        
C3        C        0.4375        0.42592500000000005        0.06710228323699421        0        
C4        C        0.46875        0.37037        0.06710228323699421        0        
C1        C        0.4375        0.46296300000000007        0.06710228323699421        0        
C2        C        0.46875        0.518519        0.06710228323699421        0        
C3        C        0.4375        0.537037        0.06710228323699421        0        
C4        C        0.46875        0.481481        0.06710228323699421        0        
C1        C        0.4375        0.574075        0.06710228323699421        0        
C2        C        0.46875        0.62963        0.06710228323699421        0        
C3        C        0.4375        0.648148        0.06710228323699421        0        
C4        C        0.46875        0.592592        0.06710228323699421        0        
C1        C        0.5        0.018519        0.06710228323699421        0        
C2        C        0.53125        0.074075        0.06710228323699421        0        
C3        C        0.5        0.092592        0.06710228323699421        0        
C4        C        0.53125        0.037037        0.06710228323699421        0        
C1        C        0.5        0.12963        0.06710228323699421        0        
C2        C        0.53125        0.185185        0.06710228323699421        0        
C3        C        0.5        0.203703        0.06710228323699421        0        
C4        C        0.53125        0.148148        0.06710228323699421        0        
C1        C        0.5        0.24074099999999998        0.06710228323699421        0        
C2        C        0.53125        0.296297        0.06710228323699421        0        
C3        C        0.5        0.314815        0.06710228323699421        0        
C4        C        0.53125        0.259259        0.06710228323699421        0        
C1        C        0.5        0.351852        0.06710228323699421        0        
C2        C        0.53125        0.407408        0.06710228323699421        0        
C3        C        0.5        0.42592500000000005        0.06710228323699421        0        
C4        C        0.53125        0.37037        0.06710228323699421        0        
C1        C        0.5        0.46296300000000007        0.06710228323699421        0        
C2        C        0.53125        0.518519        0.06710228323699421        0        
C3        C        0.5        0.537037        0.06710228323699421        0        
C4        C        0.53125        0.481481        0.06710228323699421        0        
C1        C        0.5        0.574075        0.06710228323699421        0        
C2        C        0.53125        0.62963        0.06710228323699421        0        
C3        C        0.5        0.648148        0.06710228323699421        0        
C4        C        0.53125        0.592592        0.06710228323699421        0        
C1        C        0.5625        0.018519        0.06710228323699421        0        
C2        C        0.59375        0.074075        0.06710228323699421        0        
C3        C        0.5625        0.092592        0.06710228323699421        0        
C4        C        0.59375        0.037037        0.06710228323699421        0        
C1        C        0.5625        0.12963        0.06710228323699421        0        
C2        C        0.59375        0.185185        0.06710228323699421        0        
C3        C        0.5625        0.203703        0.06710228323699421        0        
C4        C        0.59375        0.148148        0.06710228323699421        0        
C1        C        0.5625        0.24074099999999998        0.06710228323699421        0        
C2        C        0.59375        0.296297        0.06710228323699421        0        
C3        C        0.5625        0.314815        0.06710228323699421        0        
C4        C        0.59375        0.259259        0.06710228323699421        0        
C1        C        0.5625        0.351852        0.06710228323699421        0        
C2        C        0.59375        0.407408        0.06710228323699421        0        
C3        C        0.5625        0.42592500000000005        0.06710228323699421        0        
C4        C        0.59375        0.37037        0.06710228323699421        0        
C1        C        0.5625        0.46296300000000007        0.06710228323699421        0        
C2        C        0.59375        0.518519        0.06710228323699421        0        
C3        C        0.5625        0.537037        0.06710228323699421        0        
C4        C        0.59375        0.481481        0.06710228323699421        0        
C1        C        0.5625        0.574075        0.06710228323699421        0        
C2        C        0.59375        0.62963        0.06710228323699421        0        
C3        C        0.5625        0.648148        0.06710228323699421        0        
C4        C        0.59375        0.592592        0.06710228323699421        0        
C1        C        0.625        0.018519        0.06710228323699421        0        
C2        C        0.65625        0.074075        0.06710228323699421        0        
C3        C        0.625        0.092592        0.06710228323699421        0        
C4        C        0.65625        0.037037        0.06710228323699421        0        
C1        C        0.625        0.12963        0.06710228323699421        0        
C2        C        0.65625        0.185185        0.06710228323699421        0        
C3        C        0.625        0.203703        0.06710228323699421        0        
C4        C        0.65625        0.148148        0.06710228323699421        0        
C1        C        0.625        0.24074099999999998        0.06710228323699421        0        
C2        C        0.65625        0.296297        0.06710228323699421        0        
C3        C        0.625        0.314815        0.06710228323699421        0        
C4        C        0.65625        0.259259        0.06710228323699421        0        
C1        C        0.625        0.351852        0.06710228323699421        0        
C2        C        0.65625        0.407408        0.06710228323699421        0        
C3        C        0.625        0.42592500000000005        0.06710228323699421        0        
C4        C        0.65625        0.37037        0.06710228323699421        0        
C1        C        0.625        0.46296300000000007        0.06710228323699421        0        
C2        C        0.65625        0.518519        0.06710228323699421        0        
C3        C        0.625        0.537037        0.06710228323699421        0        
C4        C        0.65625        0.481481        0.06710228323699421        0        
C1        C        0.625        0.574075        0.06710228323699421        0        
C2        C        0.65625        0.62963        0.06710228323699421        0        
C3        C        0.625        0.648148        0.06710228323699421        0        
C4        C        0.65625        0.592592        0.06710228323699421        0        
C1        C        0.6875        0.018519        0.06710228323699421        0        
C2        C        0.71875        0.074075        0.06710228323699421        0        
C3        C        0.6875        0.092592        0.06710228323699421        0        
C4        C        0.71875        0.037037        0.06710228323699421        0        
C1        C        0.6875        0.12963        0.06710228323699421        0        
C2        C        0.71875        0.185185        0.06710228323699421        0        
C3        C        0.6875        0.203703        0.06710228323699421        0        
C4        C        0.71875        0.148148        0.06710228323699421        0        
C1        C        0.6875        0.24074099999999998        0.06710228323699421        0        
C2        C        0.71875        0.296297        0.06710228323699421        0        
C3        C        0.6875        0.314815        0.06710228323699421        0        
C4        C        0.71875        0.259259        0.06710228323699421        0        
C1        C        0.6875        0.351852        0.06710228323699421        0        
C2        C        0.71875        0.407408        0.06710228323699421        0        
C3        C        0.6875        0.42592500000000005        0.06710228323699421        0        
C4        C        0.71875        0.37037        0.06710228323699421        0        
C1        C        0.6875        0.46296300000000007        0.06710228323699421        0        
C2        C        0.71875        0.518519        0.06710228323699421        0        
C3        C        0.6875        0.537037        0.06710228323699421        0        
C4        C        0.71875        0.481481        0.06710228323699421        0        
C1        C        0.6875        0.574075        0.06710228323699421        0        
C2        C        0.71875        0.62963        0.06710228323699421        0        
C3        C        0.6875        0.648148        0.06710228323699421        0        
C4        C        0.71875        0.592592        0.06710228323699421        0        
C1        C        0.75        0.018519        0.06710228323699421        0        
C2        C        0.78125        0.074075        0.06710228323699421        0        
C3        C        0.75        0.092592        0.06710228323699421        0        
C4        C        0.78125        0.037037        0.06710228323699421        0        
C1        C        0.75        0.12963        0.06710228323699421        0        
C2        C        0.78125        0.185185        0.06710228323699421        0        
C3        C        0.75        0.203703        0.06710228323699421        0        
C4        C        0.78125        0.148148        0.06710228323699421        0        
C1        C        0.75        0.24074099999999998        0.06710228323699421        0        
C2        C        0.78125        0.296297        0.06710228323699421        0        
C3        C        0.75        0.314815        0.06710228323699421        0        
C4        C        0.78125        0.259259        0.06710228323699421        0        
C1        C        0.75        0.351852        0.06710228323699421        0        
C2        C        0.78125        0.407408        0.06710228323699421        0        
C3        C        0.75        0.42592500000000005        0.06710228323699421        0        
C4        C        0.78125        0.37037        0.06710228323699421        0        
C1        C        0.75        0.46296300000000007        0.06710228323699421        0        
C2        C        0.78125        0.518519        0.06710228323699421        0        
C3        C        0.75        0.537037        0.06710228323699421        0        
C4        C        0.78125        0.481481        0.06710228323699421        0        
C1        C        0.75        0.574075        0.06710228323699421        0        
C2        C        0.78125        0.62963        0.06710228323699421        0        
C3        C        0.75        0.648148        0.06710228323699421        0        
C4        C        0.78125        0.592592        0.06710228323699421        0        
C1        C        0.8125        0.018519        0.06710228323699421        0        
C2        C        0.84375        0.074075        0.06710228323699421        0        
C3        C        0.8125        0.092592        0.06710228323699421        0        
C4        C        0.84375        0.037037        0.06710228323699421        0        
C1        C        0.8125        0.12963        0.06710228323699421        0        
C2        C        0.84375        0.185185        0.06710228323699421        0        
C3        C        0.8125        0.203703        0.06710228323699421        0        
C4        C        0.84375        0.148148        0.06710228323699421        0        
C1        C        0.8125        0.24074099999999998        0.06710228323699421        0        
C2        C        0.84375        0.296297        0.06710228323699421        0        
C3        C        0.8125        0.314815        0.06710228323699421        0        
C4        C        0.84375        0.259259        0.06710228323699421        0        
C1        C        0.8125        0.351852        0.06710228323699421        0        
C2        C        0.84375        0.407408        0.06710228323699421        0        
C3        C        0.8125        0.42592500000000005        0.06710228323699421        0        
C4        C        0.84375        0.37037        0.06710228323699421        0        
C1        C        0.8125        0.46296300000000007        0.06710228323699421        0        
C2        C        0.84375        0.518519        0.06710228323699421        0        
C3        C        0.8125        0.537037        0.06710228323699421        0        
C4        C        0.84375        0.481481        0.06710228323699421        0        
C1        C        0.8125        0.574075        0.06710228323699421        0        
C2        C        0.84375        0.62963        0.06710228323699421        0        
C3        C        0.8125        0.648148        0.06710228323699421        0        
C4        C        0.84375        0.592592        0.06710228323699421        0        
C1        C        0.875        0.018519        0.06710228323699421        0        
C2        C        0.9062500000000001        0.074075        0.06710228323699421        0        
C3        C        0.875        0.092592        0.06710228323699421        0        
C4        C        0.9062500000000001        0.037037        0.06710228323699421        0        
C1        C        0.875        0.12963        0.06710228323699421        0        
C2        C        0.9062500000000001        0.185185        0.06710228323699421        0        
C3        C        0.875        0.203703        0.06710228323699421        0        
C4        C        0.9062500000000001        0.148148        0.06710228323699421        0        
C1        C        0.875        0.24074099999999998        0.06710228323699421        0        
C2        C        0.9062500000000001        0.296297        0.06710228323699421        0        
C3        C        0.875        0.314815        0.06710228323699421        0        
C4        C        0.9062500000000001        0.259259        0.06710228323699421        0        
C1        C        0.875        0.351852        0.06710228323699421        0        
C2        C        0.9062500000000001        0.407408        0.06710228323699421        0        
C3        C        0.875        0.42592500000000005        0.06710228323699421        0        
C4        C        0.9062500000000001        0.37037        0.06710228323699421        0        
C1        C        0.875        0.46296300000000007        0.06710228323699421        0        
C2        C        0.9062500000000001        0.518519        0.06710228323699421        0        
C3        C        0.875        0.537037        0.06710228323699421        0        
C4        C        0.9062500000000001        0.481481        0.06710228323699421        0        
C1        C        0.875        0.574075        0.06710228323699421        0        
C2        C        0.9062500000000001        0.62963        0.06710228323699421        0        
C3        C        0.875        0.648148        0.06710228323699421        0        
C4        C        0.9062500000000001        0.592592        0.06710228323699421        0        
C1        C        0.9375        0.018519        0.06710228323699421        0        
C2        C        0.9687500000000001        0.074075        0.06710228323699421        0        
C3        C        0.9375        0.092592        0.06710228323699421        0        
C4        C        0.9687500000000001        0.037037        0.06710228323699421        0        
C1        C        0.9375        0.12963        0.06710228323699421        0        
C2        C        0.9687500000000001        0.185185        0.06710228323699421        0        
C3        C        0.9375        0.203703        0.06710228323699421        0        
C4        C        0.9687500000000001        0.148148        0.06710228323699421        0        
C1        C        0.9375        0.24074099999999998        0.06710228323699421        0        
C2        C        0.9687500000000001        0.296297        0.06710228323699421        0        
C3        C        0.9375        0.314815        0.06710228323699421        0        
C4        C        0.9687500000000001        0.259259        0.06710228323699421        0        
C1        C        0.9375        0.351852        0.06710228323699421        0        
C2        C        0.9687500000000001        0.407408        0.06710228323699421        0        
C3        C        0.9375        0.42592500000000005        0.06710228323699421        0        
C4        C        0.9687500000000001        0.37037        0.06710228323699421        0        
C1        C        0.9375        0.46296300000000007        0.06710228323699421        0        
C2        C        0.9687500000000001        0.518519        0.06710228323699421        0        
C3        C        0.9375        0.537037        0.06710228323699421        0        
C4        C        0.9687500000000001        0.481481        0.06710228323699421        0        
C1        C        0.9375        0.574075        0.06710228323699421        0        
C2        C        0.9687500000000001        0.62963        0.06710228323699421        0        
C3        C        0.9375        0.648148        0.06710228323699421        0        
C4        C        0.9687500000000001        0.592592        0.06710228323699421        0        
C1        C        0.0        0.685186        0.06710228323699421        0        
C1        C        0.0625        0.685186        0.06710228323699421        0        
C1        C        0.125        0.685186        0.06710228323699421        0        
C1        C        0.1875        0.685186        0.06710228323699421        0        
C1        C        0.25        0.685186        0.06710228323699421        0        
C1        C        0.3125        0.685186        0.06710228323699421        0        
C1        C        0.375        0.685186        0.06710228323699421        0        
C1        C        0.4375        0.685186        0.06710228323699421        0        
C1        C        0.5        0.685186        0.06710228323699421        0        
C1        C        0.5625        0.685186        0.06710228323699421        0        
C1        C        0.625        0.685186        0.06710228323699421        0        
C1        C        0.6875        0.685186        0.06710228323699421        0        
C1        C        0.75        0.685186        0.06710228323699421        0        
C1        C        0.8125        0.685186        0.06710228323699421        0        
C1        C        0.875        0.685186        0.06710228323699421        0        
C1        C        0.9375        0.685186        0.06710228323699421        0        
C2        C        0.03125        0.740741        0.06710228323699421        0        
C2        C        0.09375        0.740741        0.06710228323699421        0        
C2        C        0.15625        0.740741        0.06710228323699421        0        
C2        C        0.21875        0.740741        0.06710228323699421        0        
C2        C        0.28125        0.740741        0.06710228323699421        0        
C2        C        0.34375        0.740741        0.06710228323699421        0        
C2        C        0.40625        0.740741        0.06710228323699421        0        
C2        C        0.46875        0.740741        0.06710228323699421        0        
C2        C        0.53125        0.740741        0.06710228323699421        0        
C2        C        0.59375        0.740741        0.06710228323699421        0        
C2        C        0.65625        0.740741        0.06710228323699421        0        
C2        C        0.71875        0.740741        0.06710228323699421        0        
C2        C        0.78125        0.740741        0.06710228323699421        0        
C2        C        0.84375        0.740741        0.06710228323699421        0        
C2        C        0.9062500000000001        0.740741        0.06710228323699421        0        
C2        C        0.9687500000000001        0.740741        0.06710228323699421        0        
C3        C        0.0        0.759259        0.06710228323699421        0        
C3        C        0.0625        0.759259        0.06710228323699421        0        
C3        C        0.125        0.759259        0.06710228323699421        0        
C3        C        0.1875        0.759259        0.06710228323699421        0        
C3        C        0.25        0.759259        0.06710228323699421        0        
C3        C        0.3125        0.759259        0.06710228323699421        0        
C3        C        0.375        0.759259        0.06710228323699421        0        
C3        C        0.4375        0.759259        0.06710228323699421        0        
C3        C        0.5        0.759259        0.06710228323699421        0        
C3        C        0.5625        0.759259        0.06710228323699421        0        
C3        C        0.625        0.759259        0.06710228323699421        0        
C3        C        0.6875        0.759259        0.06710228323699421        0        
C3        C        0.75        0.759259        0.06710228323699421        0        
C3        C        0.8125        0.759259        0.06710228323699421        0        
C3        C        0.875        0.759259        0.06710228323699421        0        
C3        C        0.9375        0.759259        0.06710228323699421        0        
C4        C        0.03125        0.703703        0.06710228323699421        0        
C4        C        0.09375        0.703703        0.06710228323699421        0        
C4        C        0.15625        0.703703        0.06710228323699421        0        
C4        C        0.21875        0.703703        0.06710228323699421        0        
C4        C        0.28125        0.703703        0.06710228323699421        0        
C4        C        0.34375        0.703703        0.06710228323699421        0        
C4        C        0.40625        0.703703        0.06710228323699421        0        
C4        C        0.46875        0.703703        0.06710228323699421        0        
C4        C        0.53125        0.703703        0.06710228323699421        0        
C4        C        0.59375        0.703703        0.06710228323699421        0        
C4        C        0.65625        0.703703        0.06710228323699421        0        
C4        C        0.71875        0.703703        0.06710228323699421        0        
C4        C        0.78125        0.703703        0.06710228323699421        0        
C4        C        0.84375        0.703703        0.06710228323699421        0        
C4        C        0.9062500000000001        0.703703        0.06710228323699421        0        
C4        C        0.9687500000000001        0.703703        0.06710228323699421        0        
C1        C        0.0        0.796297        0.06710228323699421        0        
C1        C        0.0625        0.796297        0.06710228323699421        0        
C1        C        0.125        0.796297        0.06710228323699421        0        
C1        C        0.1875        0.796297        0.06710228323699421        0        
C1        C        0.25        0.796297        0.06710228323699421        0        
C1        C        0.3125        0.796297        0.06710228323699421        0        
C1        C        0.375        0.796297        0.06710228323699421        0        
C1        C        0.4375        0.796297        0.06710228323699421        0        
C1        C        0.5        0.796297        0.06710228323699421        0        
C1        C        0.5625        0.796297        0.06710228323699421        0        
C1        C        0.625        0.796297        0.06710228323699421        0        
C1        C        0.6875        0.796297        0.06710228323699421        0        
C1        C        0.75        0.796297        0.06710228323699421        0        
C1        C        0.8125        0.796297        0.06710228323699421        0        
C1        C        0.875        0.796297        0.06710228323699421        0        
C1        C        0.9375        0.796297        0.06710228323699421        0        
C2        C        0.03125        0.851852        0.06710228323699421        0        
C2        C        0.09375        0.851852        0.06710228323699421        0        
C2        C        0.15625        0.851852        0.06710228323699421        0        
C2        C        0.21875        0.851852        0.06710228323699421        0        
C2        C        0.28125        0.851852        0.06710228323699421        0        
C2        C        0.34375        0.851852        0.06710228323699421        0        
C2        C        0.40625        0.851852        0.06710228323699421        0        
C2        C        0.46875        0.851852        0.06710228323699421        0        
C2        C        0.53125        0.851852        0.06710228323699421        0        
C2        C        0.59375        0.851852        0.06710228323699421        0        
C2        C        0.65625        0.851852        0.06710228323699421        0        
C2        C        0.71875        0.851852        0.06710228323699421        0        
C2        C        0.78125        0.851852        0.06710228323699421        0        
C2        C        0.84375        0.851852        0.06710228323699421        0        
C2        C        0.9062500000000001        0.851852        0.06710228323699421        0        
C2        C        0.9687500000000001        0.851852        0.06710228323699421        0        
C3        C        0.0        0.87037        0.06710228323699421        0        
C3        C        0.0625        0.87037        0.06710228323699421        0        
C3        C        0.125        0.87037        0.06710228323699421        0        
C3        C        0.1875        0.87037        0.06710228323699421        0        
C3        C        0.25        0.87037        0.06710228323699421        0        
C3        C        0.3125        0.87037        0.06710228323699421        0        
C3        C        0.375        0.87037        0.06710228323699421        0        
C3        C        0.4375        0.87037        0.06710228323699421        0        
C3        C        0.5        0.87037        0.06710228323699421        0        
C3        C        0.5625        0.87037        0.06710228323699421        0        
C3        C        0.625        0.87037        0.06710228323699421        0        
C3        C        0.6875        0.87037        0.06710228323699421        0        
C3        C        0.75        0.87037        0.06710228323699421        0        
C3        C        0.8125        0.87037        0.06710228323699421        0        
C3        C        0.875        0.87037        0.06710228323699421        0        
C3        C        0.9375        0.87037        0.06710228323699421        0        
C4        C        0.03125        0.814814        0.06710228323699421        0        
C4        C        0.09375        0.814814        0.06710228323699421        0        
C4        C        0.15625        0.814814        0.06710228323699421        0        
C4        C        0.21875        0.814814        0.06710228323699421        0        
C4        C        0.28125        0.814814        0.06710228323699421        0        
C4        C        0.34375        0.814814        0.06710228323699421        0        
C4        C        0.40625        0.814814        0.06710228323699421        0        
C4        C        0.46875        0.814814        0.06710228323699421        0        
C4        C        0.53125        0.814814        0.06710228323699421        0        
C4        C        0.59375        0.814814        0.06710228323699421        0        
C4        C        0.65625        0.814814        0.06710228323699421        0        
C4        C        0.71875        0.814814        0.06710228323699421        0        
C4        C        0.78125        0.814814        0.06710228323699421        0        
C4        C        0.84375        0.814814        0.06710228323699421        0        
C4        C        0.9062500000000001        0.814814        0.06710228323699421        0        
C4        C        0.9687500000000001        0.814814        0.06710228323699421        0        
C1        C        0.0        0.907408        0.06710228323699421        0        
C1        C        0.0625        0.907408        0.06710228323699421        0        
C1        C        0.125        0.907408        0.06710228323699421        0        
C1        C        0.1875        0.907408        0.06710228323699421        0        
C1        C        0.25        0.907408        0.06710228323699421        0        
C1        C        0.3125        0.907408        0.06710228323699421        0        
C1        C        0.375        0.907408        0.06710228323699421        0        
C1        C        0.4375        0.907408        0.06710228323699421        0        
C1        C        0.5        0.907408        0.06710228323699421        0        
C1        C        0.5625        0.907408        0.06710228323699421        0        
C1        C        0.625        0.907408        0.06710228323699421        0        
C1        C        0.6875        0.907408        0.06710228323699421        0        
C1        C        0.75        0.907408        0.06710228323699421        0        
C1        C        0.8125        0.907408        0.06710228323699421        0        
C1        C        0.875        0.907408        0.06710228323699421        0        
C1        C        0.9375        0.907408        0.06710228323699421        0        
C2        C        0.03125        0.962963        0.06710228323699421        0        
C2        C        0.09375        0.962963        0.06710228323699421        0        
C2        C        0.15625        0.962963        0.06710228323699421        0        
C2        C        0.21875        0.962963        0.06710228323699421        0        
C2        C        0.28125        0.962963        0.06710228323699421        0        
C2        C        0.34375        0.962963        0.06710228323699421        0        
C2        C        0.40625        0.962963        0.06710228323699421        0        
C2        C        0.46875        0.962963        0.06710228323699421        0        
C2        C        0.53125        0.962963        0.06710228323699421        0        
C2        C        0.59375        0.962963        0.06710228323699421        0        
C2        C        0.65625        0.962963        0.06710228323699421        0        
C2        C        0.71875        0.962963        0.06710228323699421        0        
C2        C        0.78125        0.962963        0.06710228323699421        0        
C2        C        0.84375        0.962963        0.06710228323699421        0        
C2        C        0.9062500000000001        0.962963        0.06710228323699421        0        
C2        C        0.9687500000000001        0.962963        0.06710228323699421        0        
C3        C        0.0        0.9814809999999999        0.06710228323699421        0        
C3        C        0.0625        0.9814809999999999        0.06710228323699421        0        
C3        C        0.125        0.9814809999999999        0.06710228323699421        0        
C3        C        0.1875        0.9814809999999999        0.06710228323699421        0        
C3        C        0.25        0.9814809999999999        0.06710228323699421        0        
C3        C        0.3125        0.9814809999999999        0.06710228323699421        0        
C3        C        0.375        0.9814809999999999        0.06710228323699421        0        
C3        C        0.4375        0.9814809999999999        0.06710228323699421        0        
C3        C        0.5        0.9814809999999999        0.06710228323699421        0        
C3        C        0.5625        0.9814809999999999        0.06710228323699421        0        
C3        C        0.625        0.9814809999999999        0.06710228323699421        0        
C3        C        0.6875        0.9814809999999999        0.06710228323699421        0        
C3        C        0.75        0.9814809999999999        0.06710228323699421        0        
C3        C        0.8125        0.9814809999999999        0.06710228323699421        0        
C3        C        0.875        0.9814809999999999        0.06710228323699421        0        
C3        C        0.9375        0.9814809999999999        0.06710228323699421        0        
C4        C        0.03125        0.925925        0.06710228323699421        0        
C4        C        0.09375        0.925925        0.06710228323699421        0        
C4        C        0.15625        0.925925        0.06710228323699421        0        
C4        C        0.21875        0.925925        0.06710228323699421        0        
C4        C        0.28125        0.925925        0.06710228323699421        0        
C4        C        0.34375        0.925925        0.06710228323699421        0        
C4        C        0.40625        0.925925        0.06710228323699421        0        
C4        C        0.46875        0.925925        0.06710228323699421        0        
C4        C        0.53125        0.925925        0.06710228323699421        0        
C4        C        0.59375        0.925925        0.06710228323699421        0        
C4        C        0.65625        0.925925        0.06710228323699421        0        
C4        C        0.71875        0.925925        0.06710228323699421        0        
C4        C        0.78125        0.925925        0.06710228323699421        0        
C4        C        0.84375        0.925925        0.06710228323699421        0        
C4        C        0.9062500000000001        0.925925        0.06710228323699421        0        
C4        C        0.9687500000000001        0.925925        0.06710228323699421        0        
C1        C        0.0        0.018519        0.16392328323699423        0        
C2        C        0.03125        0.074075        0.16392328323699423        0        
C3        C        0.0        0.092592        0.16392328323699423        0        
C4        C        0.03125        0.037037        0.16392328323699423        0        
C1        C        0.0        0.12963        0.16392328323699423        0        
C2        C        0.03125        0.185185        0.16392328323699423        0        
C3        C        0.0        0.203703        0.16392328323699423        0        
C4        C        0.03125        0.148148        0.16392328323699423        0        
C1        C        0.0        0.24074099999999998        0.16392328323699423        0        
C2        C        0.03125        0.296297        0.16392328323699423        0        
C3        C        0.0        0.314815        0.16392328323699423        0        
C4        C        0.03125        0.259259        0.16392328323699423        0        
C1        C        0.0        0.351852        0.16392328323699423        0        
C2        C        0.03125        0.407408        0.16392328323699423        0        
C3        C        0.0        0.42592500000000005        0.16392328323699423        0        
C4        C        0.03125        0.37037        0.16392328323699423        0        
C1        C        0.0        0.46296300000000007        0.16392328323699423        0        
C2        C        0.03125        0.518519        0.16392328323699423        0        
C3        C        0.0        0.537037        0.16392328323699423        0        
C4        C        0.03125        0.481481        0.16392328323699423        0        
C1        C        0.0        0.574075        0.16392328323699423        0        
C2        C        0.03125        0.62963        0.16392328323699423        0        
C3        C        0.0        0.648148        0.16392328323699423        0        
C4        C        0.03125        0.592592        0.16392328323699423        0        
C1        C        0.0625        0.018519        0.16392328323699423        0        
C2        C        0.09375        0.074075        0.16392328323699423        0        
C3        C        0.0625        0.092592        0.16392328323699423        0        
C4        C        0.09375        0.037037        0.16392328323699423        0        
C1        C        0.0625        0.12963        0.16392328323699423        0        
C2        C        0.09375        0.185185        0.16392328323699423        0        
C3        C        0.0625        0.203703        0.16392328323699423        0        
C4        C        0.09375        0.148148        0.16392328323699423        0        
C1        C        0.0625        0.24074099999999998        0.16392328323699423        0        
C2        C        0.09375        0.296297        0.16392328323699423        0        
C3        C        0.0625        0.314815        0.16392328323699423        0        
C4        C        0.09375        0.259259        0.16392328323699423        0        
C1        C        0.0625        0.351852        0.16392328323699423        0        
C2        C        0.09375        0.407408        0.16392328323699423        0        
C3        C        0.0625        0.42592500000000005        0.16392328323699423        0        
C4        C        0.09375        0.37037        0.16392328323699423        0        
C1        C        0.0625        0.46296300000000007        0.16392328323699423        0        
C2        C        0.09375        0.518519        0.16392328323699423        0        
C3        C        0.0625        0.537037        0.16392328323699423        0        
C4        C        0.09375        0.481481        0.16392328323699423        0        
C1        C        0.0625        0.574075        0.16392328323699423        0        
C2        C        0.09375        0.62963        0.16392328323699423        0        
C3        C        0.0625        0.648148        0.16392328323699423        0        
C4        C        0.09375        0.592592        0.16392328323699423        0        
C1        C        0.125        0.018519        0.16392328323699423        0        
C2        C        0.15625        0.074075        0.16392328323699423        0        
C3        C        0.125        0.092592        0.16392328323699423        0        
C4        C        0.15625        0.037037        0.16392328323699423        0        
C1        C        0.125        0.12963        0.16392328323699423        0        
C2        C        0.15625        0.185185        0.16392328323699423        0        
C3        C        0.125        0.203703        0.16392328323699423        0        
C4        C        0.15625        0.148148        0.16392328323699423        0        
C1        C        0.125        0.24074099999999998        0.16392328323699423        0        
C2        C        0.15625        0.296297        0.16392328323699423        0        
C3        C        0.125        0.314815        0.16392328323699423        0        
C4        C        0.15625        0.259259        0.16392328323699423        0        
C1        C        0.125        0.351852        0.16392328323699423        0        
C2        C        0.15625        0.407408        0.16392328323699423        0        
C3        C        0.125        0.42592500000000005        0.16392328323699423        0        
C4        C        0.15625        0.37037        0.16392328323699423        0        
C1        C        0.125        0.46296300000000007        0.16392328323699423        0        
C2        C        0.15625        0.518519        0.16392328323699423        0        
C3        C        0.125        0.537037        0.16392328323699423        0        
C4        C        0.15625        0.481481        0.16392328323699423        0        
C1        C        0.125        0.574075        0.16392328323699423        0        
C2        C        0.15625        0.62963        0.16392328323699423        0        
C3        C        0.125        0.648148        0.16392328323699423        0        
C4        C        0.15625        0.592592        0.16392328323699423        0        
C1        C        0.1875        0.018519        0.16392328323699423        0        
C2        C        0.21875        0.074075        0.16392328323699423        0        
C3        C        0.1875        0.092592        0.16392328323699423        0        
C4        C        0.21875        0.037037        0.16392328323699423        0        
C1        C        0.1875        0.12963        0.16392328323699423        0        
C2        C        0.21875        0.185185        0.16392328323699423        0        
C3        C        0.1875        0.203703        0.16392328323699423        0        
C4        C        0.21875        0.148148        0.16392328323699423        0        
C1        C        0.1875        0.24074099999999998        0.16392328323699423        0        
C2        C        0.21875        0.296297        0.16392328323699423        0        
C3        C        0.1875        0.314815        0.16392328323699423        0        
C4        C        0.21875        0.259259        0.16392328323699423        0        
C1        C        0.1875        0.351852        0.16392328323699423        0        
C2        C        0.21875        0.407408        0.16392328323699423        0        
C3        C        0.1875        0.42592500000000005        0.16392328323699423        0        
C4        C        0.21875        0.37037        0.16392328323699423        0        
C1        C        0.1875        0.46296300000000007        0.16392328323699423        0        
C2        C        0.21875        0.518519        0.16392328323699423        0        
C3        C        0.1875        0.537037        0.16392328323699423        0        
C4        C        0.21875        0.481481        0.16392328323699423        0        
C1        C        0.1875        0.574075        0.16392328323699423        0        
C2        C        0.21875        0.62963        0.16392328323699423        0        
C3        C        0.1875        0.648148        0.16392328323699423        0        
C4        C        0.21875        0.592592        0.16392328323699423        0        
C1        C        0.25        0.018519        0.16392328323699423        0        
C2        C        0.28125        0.074075        0.16392328323699423        0        
C3        C        0.25        0.092592        0.16392328323699423        0        
C4        C        0.28125        0.037037        0.16392328323699423        0        
C1        C        0.25        0.12963        0.16392328323699423        0        
C2        C        0.28125        0.185185        0.16392328323699423        0        
C3        C        0.25        0.203703        0.16392328323699423        0        
C4        C        0.28125        0.148148        0.16392328323699423        0        
C1        C        0.25        0.24074099999999998        0.16392328323699423        0        
C2        C        0.28125        0.296297        0.16392328323699423        0        
C3        C        0.25        0.314815        0.16392328323699423        0        
C4        C        0.28125        0.259259        0.16392328323699423        0        
C1        C        0.25        0.351852        0.16392328323699423        0        
C2        C        0.28125        0.407408        0.16392328323699423        0        
C3        C        0.25        0.42592500000000005        0.16392328323699423        0        
C4        C        0.28125        0.37037        0.16392328323699423        0        
C1        C        0.25        0.46296300000000007        0.16392328323699423        0        
C2        C        0.28125        0.518519        0.16392328323699423        0        
C3        C        0.25        0.537037        0.16392328323699423        0        
C4        C        0.28125        0.481481        0.16392328323699423        0        
C1        C        0.25        0.574075        0.16392328323699423        0        
C2        C        0.28125        0.62963        0.16392328323699423        0        
C3        C        0.25        0.648148        0.16392328323699423        0        
C4        C        0.28125        0.592592        0.16392328323699423        0        
C1        C        0.3125        0.018519        0.16392328323699423        0        
C2        C        0.34375        0.074075        0.16392328323699423        0        
C3        C        0.3125        0.092592        0.16392328323699423        0        
C4        C        0.34375        0.037037        0.16392328323699423        0        
C1        C        0.3125        0.12963        0.16392328323699423        0        
C2        C        0.34375        0.185185        0.16392328323699423        0        
C3        C        0.3125        0.203703        0.16392328323699423        0        
C4        C        0.34375        0.148148        0.16392328323699423        0        
C1        C        0.3125        0.24074099999999998        0.16392328323699423        0        
C2        C        0.34375        0.296297        0.16392328323699423        0        
C3        C        0.3125        0.314815        0.16392328323699423        0        
C4        C        0.34375        0.259259        0.16392328323699423        0        
C1        C        0.3125        0.351852        0.16392328323699423        0        
C2        C        0.34375        0.407408        0.16392328323699423        0        
C3        C        0.3125        0.42592500000000005        0.16392328323699423        0        
C4        C        0.34375        0.37037        0.16392328323699423        0        
C1        C        0.3125        0.46296300000000007        0.16392328323699423        0        
C2        C        0.34375        0.518519        0.16392328323699423        0        
C3        C        0.3125        0.537037        0.16392328323699423        0        
C4        C        0.34375        0.481481        0.16392328323699423        0        
C1        C        0.3125        0.574075        0.16392328323699423        0        
C2        C        0.34375        0.62963        0.16392328323699423        0        
C3        C        0.3125        0.648148        0.16392328323699423        0        
C4        C        0.34375        0.592592        0.16392328323699423        0        
C1        C        0.375        0.018519        0.16392328323699423        0        
C2        C        0.40625        0.074075        0.16392328323699423        0        
C3        C        0.375        0.092592        0.16392328323699423        0        
C4        C        0.40625        0.037037        0.16392328323699423        0        
C1        C        0.375        0.12963        0.16392328323699423        0        
C2        C        0.40625        0.185185        0.16392328323699423        0        
C3        C        0.375        0.203703        0.16392328323699423        0        
C4        C        0.40625        0.148148        0.16392328323699423        0        
C1        C        0.375        0.24074099999999998        0.16392328323699423        0        
C2        C        0.40625        0.296297        0.16392328323699423        0        
C3        C        0.375        0.314815        0.16392328323699423        0        
C4        C        0.40625        0.259259        0.16392328323699423        0        
C1        C        0.375        0.351852        0.16392328323699423        0        
C2        C        0.40625        0.407408        0.16392328323699423        0        
C3        C        0.375        0.42592500000000005        0.16392328323699423        0        
C4        C        0.40625        0.37037        0.16392328323699423        0        
C1        C        0.375        0.46296300000000007        0.16392328323699423        0        
C2        C        0.40625        0.518519        0.16392328323699423        0        
C3        C        0.375        0.537037        0.16392328323699423        0        
C4        C        0.40625        0.481481        0.16392328323699423        0        
C1        C        0.375        0.574075        0.16392328323699423        0        
C2        C        0.40625        0.62963        0.16392328323699423        0        
C3        C        0.375        0.648148        0.16392328323699423        0        
C4        C        0.40625        0.592592        0.16392328323699423        0        
C1        C        0.4375        0.018519        0.16392328323699423        0        
C2        C        0.46875        0.074075        0.16392328323699423        0        
C3        C        0.4375        0.092592        0.16392328323699423        0        
C4        C        0.46875        0.037037        0.16392328323699423        0        
C1        C        0.4375        0.12963        0.16392328323699423        0        
C2        C        0.46875        0.185185        0.16392328323699423        0        
C3        C        0.4375        0.203703        0.16392328323699423        0        
C4        C        0.46875        0.148148        0.16392328323699423        0        
C1        C        0.4375        0.24074099999999998        0.16392328323699423        0        
C2        C        0.46875        0.296297        0.16392328323699423        0        
C3        C        0.4375        0.314815        0.16392328323699423        0        
C4        C        0.46875        0.259259        0.16392328323699423        0        
C1        C        0.4375        0.351852        0.16392328323699423        0        
C2        C        0.46875        0.407408        0.16392328323699423        0        
C3        C        0.4375        0.42592500000000005        0.16392328323699423        0        
C4        C        0.46875        0.37037        0.16392328323699423        0        
C1        C        0.4375        0.46296300000000007        0.16392328323699423        0        
C2        C        0.46875        0.518519        0.16392328323699423        0        
C3        C        0.4375        0.537037        0.16392328323699423        0        
C4        C        0.46875        0.481481        0.16392328323699423        0        
C1        C        0.4375        0.574075        0.16392328323699423        0        
C2        C        0.46875        0.62963        0.16392328323699423        0        
C3        C        0.4375        0.648148        0.16392328323699423        0        
C4        C        0.46875        0.592592        0.16392328323699423        0        
C1        C        0.5        0.018519        0.16392328323699423        0        
C2        C        0.53125        0.074075        0.16392328323699423        0        
C3        C        0.5        0.092592        0.16392328323699423        0        
C4        C        0.53125        0.037037        0.16392328323699423        0        
C1        C        0.5        0.12963        0.16392328323699423        0        
C2        C        0.53125        0.185185        0.16392328323699423        0        
C3        C        0.5        0.203703        0.16392328323699423        0        
C4        C        0.53125        0.148148        0.16392328323699423        0        
C1        C        0.5        0.24074099999999998        0.16392328323699423        0        
C2        C        0.53125        0.296297        0.16392328323699423        0        
C3        C        0.5        0.314815        0.16392328323699423        0        
C4        C        0.53125        0.259259        0.16392328323699423        0        
C1        C        0.5        0.351852        0.16392328323699423        0        
C2        C        0.53125        0.407408        0.16392328323699423        0        
C3        C        0.5        0.42592500000000005        0.16392328323699423        0        
C4        C        0.53125        0.37037        0.16392328323699423        0        
C1        C        0.5        0.46296300000000007        0.16392328323699423        0        
C2        C        0.53125        0.518519        0.16392328323699423        0        
C3        C        0.5        0.537037        0.16392328323699423        0        
C4        C        0.53125        0.481481        0.16392328323699423        0        
C1        C        0.5        0.574075        0.16392328323699423        0        
C2        C        0.53125        0.62963        0.16392328323699423        0        
C3        C        0.5        0.648148        0.16392328323699423        0        
C4        C        0.53125        0.592592        0.16392328323699423        0        
C1        C        0.5625        0.018519        0.16392328323699423        0        
C2        C        0.59375        0.074075        0.16392328323699423        0        
C3        C        0.5625        0.092592        0.16392328323699423        0        
C4        C        0.59375        0.037037        0.16392328323699423        0        
C1        C        0.5625        0.12963        0.16392328323699423        0        
C2        C        0.59375        0.185185        0.16392328323699423        0        
C3        C        0.5625        0.203703        0.16392328323699423        0        
C4        C        0.59375        0.148148        0.16392328323699423        0        
C1        C        0.5625        0.24074099999999998        0.16392328323699423        0        
C2        C        0.59375        0.296297        0.16392328323699423        0        
C3        C        0.5625        0.314815        0.16392328323699423        0        
C4        C        0.59375        0.259259        0.16392328323699423        0        
C1        C        0.5625        0.351852        0.16392328323699423        0        
C2        C        0.59375        0.407408        0.16392328323699423        0        
C3        C        0.5625        0.42592500000000005        0.16392328323699423        0        
C4        C        0.59375        0.37037        0.16392328323699423        0        
C1        C        0.5625        0.46296300000000007        0.16392328323699423        0        
C2        C        0.59375        0.518519        0.16392328323699423        0        
C3        C        0.5625        0.537037        0.16392328323699423        0        
C4        C        0.59375        0.481481        0.16392328323699423        0        
C1        C        0.5625        0.574075        0.16392328323699423        0        
C2        C        0.59375        0.62963        0.16392328323699423        0        
C3        C        0.5625        0.648148        0.16392328323699423        0        
C4        C        0.59375        0.592592        0.16392328323699423        0        
C1        C        0.625        0.018519        0.16392328323699423        0        
C2        C        0.65625        0.074075        0.16392328323699423        0        
C3        C        0.625        0.092592        0.16392328323699423        0        
C4        C        0.65625        0.037037        0.16392328323699423        0        
C1        C        0.625        0.12963        0.16392328323699423        0        
C2        C        0.65625        0.185185        0.16392328323699423        0        
C3        C        0.625        0.203703        0.16392328323699423        0        
C4        C        0.65625        0.148148        0.16392328323699423        0        
C1        C        0.625        0.24074099999999998        0.16392328323699423        0        
C2        C        0.65625        0.296297        0.16392328323699423        0        
C3        C        0.625        0.314815        0.16392328323699423        0        
C4        C        0.65625        0.259259        0.16392328323699423        0        
C1        C        0.625        0.351852        0.16392328323699423        0        
C2        C        0.65625        0.407408        0.16392328323699423        0        
C3        C        0.625        0.42592500000000005        0.16392328323699423        0        
C4        C        0.65625        0.37037        0.16392328323699423        0        
C1        C        0.625        0.46296300000000007        0.16392328323699423        0        
C2        C        0.65625        0.518519        0.16392328323699423        0        
C3        C        0.625        0.537037        0.16392328323699423        0        
C4        C        0.65625        0.481481        0.16392328323699423        0        
C1        C        0.625        0.574075        0.16392328323699423        0        
C2        C        0.65625        0.62963        0.16392328323699423        0        
C3        C        0.625        0.648148        0.16392328323699423        0        
C4        C        0.65625        0.592592        0.16392328323699423        0        
C1        C        0.6875        0.018519        0.16392328323699423        0        
C2        C        0.71875        0.074075        0.16392328323699423        0        
C3        C        0.6875        0.092592        0.16392328323699423        0        
C4        C        0.71875        0.037037        0.16392328323699423        0        
C1        C        0.6875        0.12963        0.16392328323699423        0        
C2        C        0.71875        0.185185        0.16392328323699423        0        
C3        C        0.6875        0.203703        0.16392328323699423        0        
C4        C        0.71875        0.148148        0.16392328323699423        0        
C1        C        0.6875        0.24074099999999998        0.16392328323699423        0        
C2        C        0.71875        0.296297        0.16392328323699423        0        
C3        C        0.6875        0.314815        0.16392328323699423        0        
C4        C        0.71875        0.259259        0.16392328323699423        0        
C1        C        0.6875        0.351852        0.16392328323699423        0        
C2        C        0.71875        0.407408        0.16392328323699423        0        
C3        C        0.6875        0.42592500000000005        0.16392328323699423        0        
C4        C        0.71875        0.37037        0.16392328323699423        0        
C1        C        0.6875        0.46296300000000007        0.16392328323699423        0        
C2        C        0.71875        0.518519        0.16392328323699423        0        
C3        C        0.6875        0.537037        0.16392328323699423        0        
C4        C        0.71875        0.481481        0.16392328323699423        0        
C1        C        0.6875        0.574075        0.16392328323699423        0        
C2        C        0.71875        0.62963        0.16392328323699423        0        
C3        C        0.6875        0.648148        0.16392328323699423        0        
C4        C        0.71875        0.592592        0.16392328323699423        0        
C1        C        0.75        0.018519        0.16392328323699423        0        
C2        C        0.78125        0.074075        0.16392328323699423        0        
C3        C        0.75        0.092592        0.16392328323699423        0        
C4        C        0.78125        0.037037        0.16392328323699423        0        
C1        C        0.75        0.12963        0.16392328323699423        0        
C2        C        0.78125        0.185185        0.16392328323699423        0        
C3        C        0.75        0.203703        0.16392328323699423        0        
C4        C        0.78125        0.148148        0.16392328323699423        0        
C1        C        0.75        0.24074099999999998        0.16392328323699423        0        
C2        C        0.78125        0.296297        0.16392328323699423        0        
C3        C        0.75        0.314815        0.16392328323699423        0        
C4        C        0.78125        0.259259        0.16392328323699423        0        
C1        C        0.75        0.351852        0.16392328323699423        0        
C2        C        0.78125        0.407408        0.16392328323699423        0        
C3        C        0.75        0.42592500000000005        0.16392328323699423        0        
C4        C        0.78125        0.37037        0.16392328323699423        0        
C1        C        0.75        0.46296300000000007        0.16392328323699423        0        
C2        C        0.78125        0.518519        0.16392328323699423        0        
C3        C        0.75        0.537037        0.16392328323699423        0        
C4        C        0.78125        0.481481        0.16392328323699423        0        
C1        C        0.75        0.574075        0.16392328323699423        0        
C2        C        0.78125        0.62963        0.16392328323699423        0        
C3        C        0.75        0.648148        0.16392328323699423        0        
C4        C        0.78125        0.592592        0.16392328323699423        0        
C1        C        0.8125        0.018519        0.16392328323699423        0        
C2        C        0.84375        0.074075        0.16392328323699423        0        
C3        C        0.8125        0.092592        0.16392328323699423        0        
C4        C        0.84375        0.037037        0.16392328323699423        0        
C1        C        0.8125        0.12963        0.16392328323699423        0        
C2        C        0.84375        0.185185        0.16392328323699423        0        
C3        C        0.8125        0.203703        0.16392328323699423        0        
C4        C        0.84375        0.148148        0.16392328323699423        0        
C1        C        0.8125        0.24074099999999998        0.16392328323699423        0        
C2        C        0.84375        0.296297        0.16392328323699423        0        
C3        C        0.8125        0.314815        0.16392328323699423        0        
C4        C        0.84375        0.259259        0.16392328323699423        0        
C1        C        0.8125        0.351852        0.16392328323699423        0        
C2        C        0.84375        0.407408        0.16392328323699423        0        
C3        C        0.8125        0.42592500000000005        0.16392328323699423        0        
C4        C        0.84375        0.37037        0.16392328323699423        0        
C1        C        0.8125        0.46296300000000007        0.16392328323699423        0        
C2        C        0.84375        0.518519        0.16392328323699423        0        
C3        C        0.8125        0.537037        0.16392328323699423        0        
C4        C        0.84375        0.481481        0.16392328323699423        0        
C1        C        0.8125        0.574075        0.16392328323699423        0        
C2        C        0.84375        0.62963        0.16392328323699423        0        
C3        C        0.8125        0.648148        0.16392328323699423        0        
C4        C        0.84375        0.592592        0.16392328323699423        0        
C1        C        0.875        0.018519        0.16392328323699423        0        
C2        C        0.9062500000000001        0.074075        0.16392328323699423        0        
C3        C        0.875        0.092592        0.16392328323699423        0        
C4        C        0.9062500000000001        0.037037        0.16392328323699423        0        
C1        C        0.875        0.12963        0.16392328323699423        0        
C2        C        0.9062500000000001        0.185185        0.16392328323699423        0        
C3        C        0.875        0.203703        0.16392328323699423        0        
C4        C        0.9062500000000001        0.148148        0.16392328323699423        0        
C1        C        0.875        0.24074099999999998        0.16392328323699423        0        
C2        C        0.9062500000000001        0.296297        0.16392328323699423        0        
C3        C        0.875        0.314815        0.16392328323699423        0        
C4        C        0.9062500000000001        0.259259        0.16392328323699423        0        
C1        C        0.875        0.351852        0.16392328323699423        0        
C2        C        0.9062500000000001        0.407408        0.16392328323699423        0        
C3        C        0.875        0.42592500000000005        0.16392328323699423        0        
C4        C        0.9062500000000001        0.37037        0.16392328323699423        0        
C1        C        0.875        0.46296300000000007        0.16392328323699423        0        
C2        C        0.9062500000000001        0.518519        0.16392328323699423        0        
C3        C        0.875        0.537037        0.16392328323699423        0        
C4        C        0.9062500000000001        0.481481        0.16392328323699423        0        
C1        C        0.875        0.574075        0.16392328323699423        0        
C2        C        0.9062500000000001        0.62963        0.16392328323699423        0        
C3        C        0.875        0.648148        0.16392328323699423        0        
C4        C        0.9062500000000001        0.592592        0.16392328323699423        0        
C1        C        0.9375        0.018519        0.16392328323699423        0        
C2        C        0.9687500000000001        0.074075        0.16392328323699423        0        
C3        C        0.9375        0.092592        0.16392328323699423        0        
C4        C        0.9687500000000001        0.037037        0.16392328323699423        0        
C1        C        0.9375        0.12963        0.16392328323699423        0        
C2        C        0.9687500000000001        0.185185        0.16392328323699423        0        
C3        C        0.9375        0.203703        0.16392328323699423        0        
C4        C        0.9687500000000001        0.148148        0.16392328323699423        0        
C1        C        0.9375        0.24074099999999998        0.16392328323699423        0        
C2        C        0.9687500000000001        0.296297        0.16392328323699423        0        
C3        C        0.9375        0.314815        0.16392328323699423        0        
C4        C        0.9687500000000001        0.259259        0.16392328323699423        0        
C1        C        0.9375        0.351852        0.16392328323699423        0        
C2        C        0.9687500000000001        0.407408        0.16392328323699423        0        
C3        C        0.9375        0.42592500000000005        0.16392328323699423        0        
C4        C        0.9687500000000001        0.37037        0.16392328323699423        0        
C1        C        0.9375        0.46296300000000007        0.16392328323699423        0        
C2        C        0.9687500000000001        0.518519        0.16392328323699423        0        
C3        C        0.9375        0.537037        0.16392328323699423        0        
C4        C        0.9687500000000001        0.481481        0.16392328323699423        0        
C1        C        0.9375        0.574075        0.16392328323699423        0        
C2        C        0.9687500000000001        0.62963        0.16392328323699423        0        
C3        C        0.9375        0.648148        0.16392328323699423        0        
C4        C        0.9687500000000001        0.592592        0.16392328323699423        0        
C1        C        0.0        0.685186        0.16392328323699423        0        
C1        C        0.0625        0.685186        0.16392328323699423        0        
C1        C        0.125        0.685186        0.16392328323699423        0        
C1        C        0.1875        0.685186        0.16392328323699423        0        
C1        C        0.25        0.685186        0.16392328323699423        0        
C1        C        0.3125        0.685186        0.16392328323699423        0        
C1        C        0.375        0.685186        0.16392328323699423        0        
C1        C        0.4375        0.685186        0.16392328323699423        0        
C1        C        0.5        0.685186        0.16392328323699423        0        
C1        C        0.5625        0.685186        0.16392328323699423        0        
C1        C        0.625        0.685186        0.16392328323699423        0        
C1        C        0.6875        0.685186        0.16392328323699423        0        
C1        C        0.75        0.685186        0.16392328323699423        0        
C1        C        0.8125        0.685186        0.16392328323699423        0        
C1        C        0.875        0.685186        0.16392328323699423        0        
C1        C        0.9375        0.685186        0.16392328323699423        0        
C2        C        0.03125        0.740741        0.16392328323699423        0        
C2        C        0.09375        0.740741        0.16392328323699423        0        
C2        C        0.15625        0.740741        0.16392328323699423        0        
C2        C        0.21875        0.740741        0.16392328323699423        0        
C2        C        0.28125        0.740741        0.16392328323699423        0        
C2        C        0.34375        0.740741        0.16392328323699423        0        
C2        C        0.40625        0.740741        0.16392328323699423        0        
C2        C        0.46875        0.740741        0.16392328323699423        0        
C2        C        0.53125        0.740741        0.16392328323699423        0        
C2        C        0.59375        0.740741        0.16392328323699423        0        
C2        C        0.65625        0.740741        0.16392328323699423        0        
C2        C        0.71875        0.740741        0.16392328323699423        0        
C2        C        0.78125        0.740741        0.16392328323699423        0        
C2        C        0.84375        0.740741        0.16392328323699423        0        
C2        C        0.9062500000000001        0.740741        0.16392328323699423        0        
C2        C        0.9687500000000001        0.740741        0.16392328323699423        0        
C3        C        0.0        0.759259        0.16392328323699423        0        
C3        C        0.0625        0.759259        0.16392328323699423        0        
C3        C        0.125        0.759259        0.16392328323699423        0        
C3        C        0.1875        0.759259        0.16392328323699423        0        
C3        C        0.25        0.759259        0.16392328323699423        0        
C3        C        0.3125        0.759259        0.16392328323699423        0        
C3        C        0.375        0.759259        0.16392328323699423        0        
C3        C        0.4375        0.759259        0.16392328323699423        0        
C3        C        0.5        0.759259        0.16392328323699423        0        
C3        C        0.5625        0.759259        0.16392328323699423        0        
C3        C        0.625        0.759259        0.16392328323699423        0        
C3        C        0.6875        0.759259        0.16392328323699423        0        
C3        C        0.75        0.759259        0.16392328323699423        0        
C3        C        0.8125        0.759259        0.16392328323699423        0        
C3        C        0.875        0.759259        0.16392328323699423        0        
C3        C        0.9375        0.759259        0.16392328323699423        0        
C4        C        0.03125        0.703703        0.16392328323699423        0        
C4        C        0.09375        0.703703        0.16392328323699423        0        
C4        C        0.15625        0.703703        0.16392328323699423        0        
C4        C        0.21875        0.703703        0.16392328323699423        0        
C4        C        0.28125        0.703703        0.16392328323699423        0        
C4        C        0.34375        0.703703        0.16392328323699423        0        
C4        C        0.40625        0.703703        0.16392328323699423        0        
C4        C        0.46875        0.703703        0.16392328323699423        0        
C4        C        0.53125        0.703703        0.16392328323699423        0        
C4        C        0.59375        0.703703        0.16392328323699423        0        
C4        C        0.65625        0.703703        0.16392328323699423        0        
C4        C        0.71875        0.703703        0.16392328323699423        0        
C4        C        0.78125        0.703703        0.16392328323699423        0        
C4        C        0.84375        0.703703        0.16392328323699423        0        
C4        C        0.9062500000000001        0.703703        0.16392328323699423        0        
C4        C        0.9687500000000001        0.703703        0.16392328323699423        0        
C1        C        0.0        0.796297        0.16392328323699423        0        
C1        C        0.0625        0.796297        0.16392328323699423        0        
C1        C        0.125        0.796297        0.16392328323699423        0        
C1        C        0.1875        0.796297        0.16392328323699423        0        
C1        C        0.25        0.796297        0.16392328323699423        0        
C1        C        0.3125        0.796297        0.16392328323699423        0        
C1        C        0.375        0.796297        0.16392328323699423        0        
C1        C        0.4375        0.796297        0.16392328323699423        0        
C1        C        0.5        0.796297        0.16392328323699423        0        
C1        C        0.5625        0.796297        0.16392328323699423        0        
C1        C        0.625        0.796297        0.16392328323699423        0        
C1        C        0.6875        0.796297        0.16392328323699423        0        
C1        C        0.75        0.796297        0.16392328323699423        0        
C1        C        0.8125        0.796297        0.16392328323699423        0        
C1        C        0.875        0.796297        0.16392328323699423        0        
C1        C        0.9375        0.796297        0.16392328323699423        0        
C2        C        0.03125        0.851852        0.16392328323699423        0        
C2        C        0.09375        0.851852        0.16392328323699423        0        
C2        C        0.15625        0.851852        0.16392328323699423        0        
C2        C        0.21875        0.851852        0.16392328323699423        0        
C2        C        0.28125        0.851852        0.16392328323699423        0        
C2        C        0.34375        0.851852        0.16392328323699423        0        
C2        C        0.40625        0.851852        0.16392328323699423        0        
C2        C        0.46875        0.851852        0.16392328323699423        0        
C2        C        0.53125        0.851852        0.16392328323699423        0        
C2        C        0.59375        0.851852        0.16392328323699423        0        
C2        C        0.65625        0.851852        0.16392328323699423        0        
C2        C        0.71875        0.851852        0.16392328323699423        0        
C2        C        0.78125        0.851852        0.16392328323699423        0        
C2        C        0.84375        0.851852        0.16392328323699423        0        
C2        C        0.9062500000000001        0.851852        0.16392328323699423        0        
C2        C        0.9687500000000001        0.851852        0.16392328323699423        0        
C3        C        0.0        0.87037        0.16392328323699423        0        
C3        C        0.0625        0.87037        0.16392328323699423        0        
C3        C        0.125        0.87037        0.16392328323699423        0        
C3        C        0.1875        0.87037        0.16392328323699423        0        
C3        C        0.25        0.87037        0.16392328323699423        0        
C3        C        0.3125        0.87037        0.16392328323699423        0        
C3        C        0.375        0.87037        0.16392328323699423        0        
C3        C        0.4375        0.87037        0.16392328323699423        0        
C3        C        0.5        0.87037        0.16392328323699423        0        
C3        C        0.5625        0.87037        0.16392328323699423        0        
C3        C        0.625        0.87037        0.16392328323699423        0        
C3        C        0.6875        0.87037        0.16392328323699423        0        
C3        C        0.75        0.87037        0.16392328323699423        0        
C3        C        0.8125        0.87037        0.16392328323699423        0        
C3        C        0.875        0.87037        0.16392328323699423        0        
C3        C        0.9375        0.87037        0.16392328323699423        0        
C4        C        0.03125        0.814814        0.16392328323699423        0        
C4        C        0.09375        0.814814        0.16392328323699423        0        
C4        C        0.15625        0.814814        0.16392328323699423        0        
C4        C        0.21875        0.814814        0.16392328323699423        0        
C4        C        0.28125        0.814814        0.16392328323699423        0        
C4        C        0.34375        0.814814        0.16392328323699423        0        
C4        C        0.40625        0.814814        0.16392328323699423        0        
C4        C        0.46875        0.814814        0.16392328323699423        0        
C4        C        0.53125        0.814814        0.16392328323699423        0        
C4        C        0.59375        0.814814        0.16392328323699423        0        
C4        C        0.65625        0.814814        0.16392328323699423        0        
C4        C        0.71875        0.814814        0.16392328323699423        0        
C4        C        0.78125        0.814814        0.16392328323699423        0        
C4        C        0.84375        0.814814        0.16392328323699423        0        
C4        C        0.9062500000000001        0.814814        0.16392328323699423        0        
C4        C        0.9687500000000001        0.814814        0.16392328323699423        0        
C1        C        0.0        0.907408        0.16392328323699423        0        
C1        C        0.0625        0.907408        0.16392328323699423        0        
C1        C        0.125        0.907408        0.16392328323699423        0        
C1        C        0.1875        0.907408        0.16392328323699423        0        
C1        C        0.25        0.907408        0.16392328323699423        0        
C1        C        0.3125        0.907408        0.16392328323699423        0        
C1        C        0.375        0.907408        0.16392328323699423        0        
C1        C        0.4375        0.907408        0.16392328323699423        0        
C1        C        0.5        0.907408        0.16392328323699423        0        
C1        C        0.5625        0.907408        0.16392328323699423        0        
C1        C        0.625        0.907408        0.16392328323699423        0        
C1        C        0.6875        0.907408        0.16392328323699423        0        
C1        C        0.75        0.907408        0.16392328323699423        0        
C1        C        0.8125        0.907408        0.16392328323699423        0        
C1        C        0.875        0.907408        0.16392328323699423        0        
C1        C        0.9375        0.907408        0.16392328323699423        0        
C2        C        0.03125        0.962963        0.16392328323699423        0        
C2        C        0.09375        0.962963        0.16392328323699423        0        
C2        C        0.15625        0.962963        0.16392328323699423        0        
C2        C        0.21875        0.962963        0.16392328323699423        0        
C2        C        0.28125        0.962963        0.16392328323699423        0        
C2        C        0.34375        0.962963        0.16392328323699423        0        
C2        C        0.40625        0.962963        0.16392328323699423        0        
C2        C        0.46875        0.962963        0.16392328323699423        0        
C2        C        0.53125        0.962963        0.16392328323699423        0        
C2        C        0.59375        0.962963        0.16392328323699423        0        
C2        C        0.65625        0.962963        0.16392328323699423        0        
C2        C        0.71875        0.962963        0.16392328323699423        0        
C2        C        0.78125        0.962963        0.16392328323699423        0        
C2        C        0.84375        0.962963        0.16392328323699423        0        
C2        C        0.9062500000000001        0.962963        0.16392328323699423        0        
C2        C        0.9687500000000001        0.962963        0.16392328323699423        0        
C3        C        0.0        0.9814809999999999        0.16392328323699423        0        
C3        C        0.0625        0.9814809999999999        0.16392328323699423        0        
C3        C        0.125        0.9814809999999999        0.16392328323699423        0        
C3        C        0.1875        0.9814809999999999        0.16392328323699423        0        
C3        C        0.25        0.9814809999999999        0.16392328323699423        0        
C3        C        0.3125        0.9814809999999999        0.16392328323699423        0        
C3        C        0.375        0.9814809999999999        0.16392328323699423        0        
C3        C        0.4375        0.9814809999999999        0.16392328323699423        0        
C3        C        0.5        0.9814809999999999        0.16392328323699423        0        
C3        C        0.5625        0.9814809999999999        0.16392328323699423        0        
C3        C        0.625        0.9814809999999999        0.16392328323699423        0        
C3        C        0.6875        0.9814809999999999        0.16392328323699423        0        
C3        C        0.75        0.9814809999999999        0.16392328323699423        0        
C3        C        0.8125        0.9814809999999999        0.16392328323699423        0        
C3        C        0.875        0.9814809999999999        0.16392328323699423        0        
C3        C        0.9375        0.9814809999999999        0.16392328323699423        0        
C4        C        0.03125        0.925925        0.16392328323699423        0        
C4        C        0.09375        0.925925        0.16392328323699423        0        
C4        C        0.15625        0.925925        0.16392328323699423        0        
C4        C        0.21875        0.925925        0.16392328323699423        0        
C4        C        0.28125        0.925925        0.16392328323699423        0        
C4        C        0.34375        0.925925        0.16392328323699423        0        
C4        C        0.40625        0.925925        0.16392328323699423        0        
C4        C        0.46875        0.925925        0.16392328323699423        0        
C4        C        0.53125        0.925925        0.16392328323699423        0        
C4        C        0.59375        0.925925        0.16392328323699423        0        
C4        C        0.65625        0.925925        0.16392328323699423        0        
C4        C        0.71875        0.925925        0.16392328323699423        0        
C4        C        0.78125        0.925925        0.16392328323699423        0        
C4        C        0.84375        0.925925        0.16392328323699423        0        
C4        C        0.9062500000000001        0.925925        0.16392328323699423        0        
C4        C        0.9687500000000001        0.925925        0.16392328323699423        0        
C1        C        0.0        0.018519        0.2607442832369943        0        
C2        C        0.03125        0.074075        0.2607442832369943        0        
C3        C        0.0        0.092592        0.2607442832369943        0        
C4        C        0.03125        0.037037        0.2607442832369943        0        
C1        C        0.0        0.12963        0.2607442832369943        0        
C2        C        0.03125        0.185185        0.2607442832369943        0        
C3        C        0.0        0.203703        0.2607442832369943        0        
C4        C        0.03125        0.148148        0.2607442832369943        0        
C1        C        0.0        0.24074099999999998        0.2607442832369943        0        
C2        C        0.03125        0.296297        0.2607442832369943        0        
C3        C        0.0        0.314815        0.2607442832369943        0        
C4        C        0.03125        0.259259        0.2607442832369943        0        
C1        C        0.0        0.351852        0.2607442832369943        0        
C2        C        0.03125        0.407408        0.2607442832369943        0        
C3        C        0.0        0.42592500000000005        0.2607442832369943        0        
C4        C        0.03125        0.37037        0.2607442832369943        0        
C1        C        0.0        0.46296300000000007        0.2607442832369943        0        
C2        C        0.03125        0.518519        0.2607442832369943        0        
C3        C        0.0        0.537037        0.2607442832369943        0        
C4        C        0.03125        0.481481        0.2607442832369943        0        
C1        C        0.0        0.574075        0.2607442832369943        0        
C2        C        0.03125        0.62963        0.2607442832369943        0        
C3        C        0.0        0.648148        0.2607442832369943        0        
C4        C        0.03125        0.592592        0.2607442832369943        0        
C1        C        0.0625        0.018519        0.2607442832369943        0        
C2        C        0.09375        0.074075        0.2607442832369943        0        
C3        C        0.0625        0.092592        0.2607442832369943        0        
C4        C        0.09375        0.037037        0.2607442832369943        0        
C1        C        0.0625        0.12963        0.2607442832369943        0        
C2        C        0.09375        0.185185        0.2607442832369943        0        
C3        C        0.0625        0.203703        0.2607442832369943        0        
C4        C        0.09375        0.148148        0.2607442832369943        0        
C1        C        0.0625        0.24074099999999998        0.2607442832369943        0        
C2        C        0.09375        0.296297        0.2607442832369943        0        
C3        C        0.0625        0.314815        0.2607442832369943        0        
C4        C        0.09375        0.259259        0.2607442832369943        0        
C1        C        0.0625        0.351852        0.2607442832369943        0        
C2        C        0.09375        0.407408        0.2607442832369943        0        
C3        C        0.0625        0.42592500000000005        0.2607442832369943        0        
C4        C        0.09375        0.37037        0.2607442832369943        0        
C1        C        0.0625        0.46296300000000007        0.2607442832369943        0        
C2        C        0.09375        0.518519        0.2607442832369943        0        
C3        C        0.0625        0.537037        0.2607442832369943        0        
C4        C        0.09375        0.481481        0.2607442832369943        0        
C1        C        0.0625        0.574075        0.2607442832369943        0        
C2        C        0.09375        0.62963        0.2607442832369943        0        
C3        C        0.0625        0.648148        0.2607442832369943        0        
C4        C        0.09375        0.592592        0.2607442832369943        0        
C1        C        0.125        0.018519        0.2607442832369943        0        
C2        C        0.15625        0.074075        0.2607442832369943        0        
C3        C        0.125        0.092592        0.2607442832369943        0        
C4        C        0.15625        0.037037        0.2607442832369943        0        
C1        C        0.125        0.12963        0.2607442832369943        0        
C2        C        0.15625        0.185185        0.2607442832369943        0        
C3        C        0.125        0.203703        0.2607442832369943        0        
C4        C        0.15625        0.148148        0.2607442832369943        0        
C1        C        0.125        0.24074099999999998        0.2607442832369943        0        
C2        C        0.15625        0.296297        0.2607442832369943        0        
C3        C        0.125        0.314815        0.2607442832369943        0        
C4        C        0.15625        0.259259        0.2607442832369943        0        
C1        C        0.125        0.351852        0.2607442832369943        0        
C2        C        0.15625        0.407408        0.2607442832369943        0        
C3        C        0.125        0.42592500000000005        0.2607442832369943        0        
C4        C        0.15625        0.37037        0.2607442832369943        0        
C1        C        0.125        0.46296300000000007        0.2607442832369943        0        
C2        C        0.15625        0.518519        0.2607442832369943        0        
C3        C        0.125        0.537037        0.2607442832369943        0        
C4        C        0.15625        0.481481        0.2607442832369943        0        
C1        C        0.125        0.574075        0.2607442832369943        0        
C2        C        0.15625        0.62963        0.2607442832369943        0        
C3        C        0.125        0.648148        0.2607442832369943        0        
C4        C        0.15625        0.592592        0.2607442832369943        0        
C1        C        0.1875        0.018519        0.2607442832369943        0        
C2        C        0.21875        0.074075        0.2607442832369943        0        
C3        C        0.1875        0.092592        0.2607442832369943        0        
C4        C        0.21875        0.037037        0.2607442832369943        0        
C1        C        0.1875        0.12963        0.2607442832369943        0        
C2        C        0.21875        0.185185        0.2607442832369943        0        
C3        C        0.1875        0.203703        0.2607442832369943        0        
C4        C        0.21875        0.148148        0.2607442832369943        0        
C1        C        0.1875        0.24074099999999998        0.2607442832369943        0        
C2        C        0.21875        0.296297        0.2607442832369943        0        
C3        C        0.1875        0.314815        0.2607442832369943        0        
C4        C        0.21875        0.259259        0.2607442832369943        0        
C1        C        0.1875        0.351852        0.2607442832369943        0        
C2        C        0.21875        0.407408        0.2607442832369943        0        
C3        C        0.1875        0.42592500000000005        0.2607442832369943        0        
C4        C        0.21875        0.37037        0.2607442832369943        0        
C1        C        0.1875        0.46296300000000007        0.2607442832369943        0        
C2        C        0.21875        0.518519        0.2607442832369943        0        
C3        C        0.1875        0.537037        0.2607442832369943        0        
C4        C        0.21875        0.481481        0.2607442832369943        0        
C1        C        0.1875        0.574075        0.2607442832369943        0        
C2        C        0.21875        0.62963        0.2607442832369943        0        
C3        C        0.1875        0.648148        0.2607442832369943        0        
C4        C        0.21875        0.592592        0.2607442832369943        0        
C1        C        0.25        0.018519        0.2607442832369943        0        
C2        C        0.28125        0.074075        0.2607442832369943        0        
C3        C        0.25        0.092592        0.2607442832369943        0        
C4        C        0.28125        0.037037        0.2607442832369943        0        
C1        C        0.25        0.12963        0.2607442832369943        0        
C2        C        0.28125        0.185185        0.2607442832369943        0        
C3        C        0.25        0.203703        0.2607442832369943        0        
C4        C        0.28125        0.148148        0.2607442832369943        0        
C1        C        0.25        0.24074099999999998        0.2607442832369943        0        
C2        C        0.28125        0.296297        0.2607442832369943        0        
C3        C        0.25        0.314815        0.2607442832369943        0        
C4        C        0.28125        0.259259        0.2607442832369943        0        
C1        C        0.25        0.351852        0.2607442832369943        0        
C2        C        0.28125        0.407408        0.2607442832369943        0        
C3        C        0.25        0.42592500000000005        0.2607442832369943        0        
C4        C        0.28125        0.37037        0.2607442832369943        0        
C1        C        0.25        0.46296300000000007        0.2607442832369943        0        
C2        C        0.28125        0.518519        0.2607442832369943        0        
C3        C        0.25        0.537037        0.2607442832369943        0        
C4        C        0.28125        0.481481        0.2607442832369943        0        
C1        C        0.25        0.574075        0.2607442832369943        0        
C2        C        0.28125        0.62963        0.2607442832369943        0        
C3        C        0.25        0.648148        0.2607442832369943        0        
C4        C        0.28125        0.592592        0.2607442832369943        0        
C1        C        0.3125        0.018519        0.2607442832369943        0        
C2        C        0.34375        0.074075        0.2607442832369943        0        
C3        C        0.3125        0.092592        0.2607442832369943        0        
C4        C        0.34375        0.037037        0.2607442832369943        0        
C1        C        0.3125        0.12963        0.2607442832369943        0        
C2        C        0.34375        0.185185        0.2607442832369943        0        
C3        C        0.3125        0.203703        0.2607442832369943        0        
C4        C        0.34375        0.148148        0.2607442832369943        0        
C1        C        0.3125        0.24074099999999998        0.2607442832369943        0        
C2        C        0.34375        0.296297        0.2607442832369943        0        
C3        C        0.3125        0.314815        0.2607442832369943        0        
C4        C        0.34375        0.259259        0.2607442832369943        0        
C1        C        0.3125        0.351852        0.2607442832369943        0        
C2        C        0.34375        0.407408        0.2607442832369943        0        
C3        C        0.3125        0.42592500000000005        0.2607442832369943        0        
C4        C        0.34375        0.37037        0.2607442832369943        0        
C1        C        0.3125        0.46296300000000007        0.2607442832369943        0        
C2        C        0.34375        0.518519        0.2607442832369943        0        
C3        C        0.3125        0.537037        0.2607442832369943        0        
C4        C        0.34375        0.481481        0.2607442832369943        0        
C1        C        0.3125        0.574075        0.2607442832369943        0        
C2        C        0.34375        0.62963        0.2607442832369943        0        
C3        C        0.3125        0.648148        0.2607442832369943        0        
C4        C        0.34375        0.592592        0.2607442832369943        0        
C1        C        0.375        0.018519        0.2607442832369943        0        
C2        C        0.40625        0.074075        0.2607442832369943        0        
C3        C        0.375        0.092592        0.2607442832369943        0        
C4        C        0.40625        0.037037        0.2607442832369943        0        
C1        C        0.375        0.12963        0.2607442832369943        0        
C2        C        0.40625        0.185185        0.2607442832369943        0        
C3        C        0.375        0.203703        0.2607442832369943        0        
C4        C        0.40625        0.148148        0.2607442832369943        0        
C1        C        0.375        0.24074099999999998        0.2607442832369943        0        
C2        C        0.40625        0.296297        0.2607442832369943        0        
C3        C        0.375        0.314815        0.2607442832369943        0        
C4        C        0.40625        0.259259        0.2607442832369943        0        
C1        C        0.375        0.351852        0.2607442832369943        0        
C2        C        0.40625        0.407408        0.2607442832369943        0        
C3        C        0.375        0.42592500000000005        0.2607442832369943        0        
C4        C        0.40625        0.37037        0.2607442832369943        0        
C1        C        0.375        0.46296300000000007        0.2607442832369943        0        
C2        C        0.40625        0.518519        0.2607442832369943        0        
C3        C        0.375        0.537037        0.2607442832369943        0        
C4        C        0.40625        0.481481        0.2607442832369943        0        
C1        C        0.375        0.574075        0.2607442832369943        0        
C2        C        0.40625        0.62963        0.2607442832369943        0        
C3        C        0.375        0.648148        0.2607442832369943        0        
C4        C        0.40625        0.592592        0.2607442832369943        0        
C1        C        0.4375        0.018519        0.2607442832369943        0        
C2        C        0.46875        0.074075        0.2607442832369943        0        
C3        C        0.4375        0.092592        0.2607442832369943        0        
C4        C        0.46875        0.037037        0.2607442832369943        0        
C1        C        0.4375        0.12963        0.2607442832369943        0        
C2        C        0.46875        0.185185        0.2607442832369943        0        
C3        C        0.4375        0.203703        0.2607442832369943        0        
C4        C        0.46875        0.148148        0.2607442832369943        0        
C1        C        0.4375        0.24074099999999998        0.2607442832369943        0        
C2        C        0.46875        0.296297        0.2607442832369943        0        
C3        C        0.4375        0.314815        0.2607442832369943        0        
C4        C        0.46875        0.259259        0.2607442832369943        0        
C1        C        0.4375        0.351852        0.2607442832369943        0        
C2        C        0.46875        0.407408        0.2607442832369943        0        
C3        C        0.4375        0.42592500000000005        0.2607442832369943        0        
C4        C        0.46875        0.37037        0.2607442832369943        0        
C1        C        0.4375        0.46296300000000007        0.2607442832369943        0        
C2        C        0.46875        0.518519        0.2607442832369943        0        
C3        C        0.4375        0.537037        0.2607442832369943        0        
C4        C        0.46875        0.481481        0.2607442832369943        0        
C1        C        0.4375        0.574075        0.2607442832369943        0        
C2        C        0.46875        0.62963        0.2607442832369943        0        
C3        C        0.4375        0.648148        0.2607442832369943        0        
C4        C        0.46875        0.592592        0.2607442832369943        0        
C1        C        0.5        0.018519        0.2607442832369943        0        
C2        C        0.53125        0.074075        0.2607442832369943        0        
C3        C        0.5        0.092592        0.2607442832369943        0        
C4        C        0.53125        0.037037        0.2607442832369943        0        
C1        C        0.5        0.12963        0.2607442832369943        0        
C2        C        0.53125        0.185185        0.2607442832369943        0        
C3        C        0.5        0.203703        0.2607442832369943        0        
C4        C        0.53125        0.148148        0.2607442832369943        0        
C1        C        0.5        0.24074099999999998        0.2607442832369943        0        
C2        C        0.53125        0.296297        0.2607442832369943        0        
C3        C        0.5        0.314815        0.2607442832369943        0        
C4        C        0.53125        0.259259        0.2607442832369943        0        
C1        C        0.5        0.351852        0.2607442832369943        0        
C2        C        0.53125        0.407408        0.2607442832369943        0        
C3        C        0.5        0.42592500000000005        0.2607442832369943        0        
C4        C        0.53125        0.37037        0.2607442832369943        0        
C1        C        0.5        0.46296300000000007        0.2607442832369943        0        
C2        C        0.53125        0.518519        0.2607442832369943        0        
C3        C        0.5        0.537037        0.2607442832369943        0        
C4        C        0.53125        0.481481        0.2607442832369943        0        
C1        C        0.5        0.574075        0.2607442832369943        0        
C2        C        0.53125        0.62963        0.2607442832369943        0        
C3        C        0.5        0.648148        0.2607442832369943        0        
C4        C        0.53125        0.592592        0.2607442832369943        0        
C1        C        0.5625        0.018519        0.2607442832369943        0        
C2        C        0.59375        0.074075        0.2607442832369943        0        
C3        C        0.5625        0.092592        0.2607442832369943        0        
C4        C        0.59375        0.037037        0.2607442832369943        0        
C1        C        0.5625        0.12963        0.2607442832369943        0        
C2        C        0.59375        0.185185        0.2607442832369943        0        
C3        C        0.5625        0.203703        0.2607442832369943        0        
C4        C        0.59375        0.148148        0.2607442832369943        0        
C1        C        0.5625        0.24074099999999998        0.2607442832369943        0        
C2        C        0.59375        0.296297        0.2607442832369943        0        
C3        C        0.5625        0.314815        0.2607442832369943        0        
C4        C        0.59375        0.259259        0.2607442832369943        0        
C1        C        0.5625        0.351852        0.2607442832369943        0        
C2        C        0.59375        0.407408        0.2607442832369943        0        
C3        C        0.5625        0.42592500000000005        0.2607442832369943        0        
C4        C        0.59375        0.37037        0.2607442832369943        0        
C1        C        0.5625        0.46296300000000007        0.2607442832369943        0        
C2        C        0.59375        0.518519        0.2607442832369943        0        
C3        C        0.5625        0.537037        0.2607442832369943        0        
C4        C        0.59375        0.481481        0.2607442832369943        0        
C1        C        0.5625        0.574075        0.2607442832369943        0        
C2        C        0.59375        0.62963        0.2607442832369943        0        
C3        C        0.5625        0.648148        0.2607442832369943        0        
C4        C        0.59375        0.592592        0.2607442832369943        0        
C1        C        0.625        0.018519        0.2607442832369943        0        
C2        C        0.65625        0.074075        0.2607442832369943        0        
C3        C        0.625        0.092592        0.2607442832369943        0        
C4        C        0.65625        0.037037        0.2607442832369943        0        
C1        C        0.625        0.12963        0.2607442832369943        0        
C2        C        0.65625        0.185185        0.2607442832369943        0        
C3        C        0.625        0.203703        0.2607442832369943        0        
C4        C        0.65625        0.148148        0.2607442832369943        0        
C1        C        0.625        0.24074099999999998        0.2607442832369943        0        
C2        C        0.65625        0.296297        0.2607442832369943        0        
C3        C        0.625        0.314815        0.2607442832369943        0        
C4        C        0.65625        0.259259        0.2607442832369943        0        
C1        C        0.625        0.351852        0.2607442832369943        0        
C2        C        0.65625        0.407408        0.2607442832369943        0        
C3        C        0.625        0.42592500000000005        0.2607442832369943        0        
C4        C        0.65625        0.37037        0.2607442832369943        0        
C1        C        0.625        0.46296300000000007        0.2607442832369943        0        
C2        C        0.65625        0.518519        0.2607442832369943        0        
C3        C        0.625        0.537037        0.2607442832369943        0        
C4        C        0.65625        0.481481        0.2607442832369943        0        
C1        C        0.625        0.574075        0.2607442832369943        0        
C2        C        0.65625        0.62963        0.2607442832369943        0        
C3        C        0.625        0.648148        0.2607442832369943        0        
C4        C        0.65625        0.592592        0.2607442832369943        0        
C1        C        0.6875        0.018519        0.2607442832369943        0        
C2        C        0.71875        0.074075        0.2607442832369943        0        
C3        C        0.6875        0.092592        0.2607442832369943        0        
C4        C        0.71875        0.037037        0.2607442832369943        0        
C1        C        0.6875        0.12963        0.2607442832369943        0        
C2        C        0.71875        0.185185        0.2607442832369943        0        
C3        C        0.6875        0.203703        0.2607442832369943        0        
C4        C        0.71875        0.148148        0.2607442832369943        0        
C1        C        0.6875        0.24074099999999998        0.2607442832369943        0        
C2        C        0.71875        0.296297        0.2607442832369943        0        
C3        C        0.6875        0.314815        0.2607442832369943        0        
C4        C        0.71875        0.259259        0.2607442832369943        0        
C1        C        0.6875        0.351852        0.2607442832369943        0        
C2        C        0.71875        0.407408        0.2607442832369943        0        
C3        C        0.6875        0.42592500000000005        0.2607442832369943        0        
C4        C        0.71875        0.37037        0.2607442832369943        0        
C1        C        0.6875        0.46296300000000007        0.2607442832369943        0        
C2        C        0.71875        0.518519        0.2607442832369943        0        
C3        C        0.6875        0.537037        0.2607442832369943        0        
C4        C        0.71875        0.481481        0.2607442832369943        0        
C1        C        0.6875        0.574075        0.2607442832369943        0        
C2        C        0.71875        0.62963        0.2607442832369943        0        
C3        C        0.6875        0.648148        0.2607442832369943        0        
C4        C        0.71875        0.592592        0.2607442832369943        0        
C1        C        0.75        0.018519        0.2607442832369943        0        
C2        C        0.78125        0.074075        0.2607442832369943        0        
C3        C        0.75        0.092592        0.2607442832369943        0        
C4        C        0.78125        0.037037        0.2607442832369943        0        
C1        C        0.75        0.12963        0.2607442832369943        0        
C2        C        0.78125        0.185185        0.2607442832369943        0        
C3        C        0.75        0.203703        0.2607442832369943        0        
C4        C        0.78125        0.148148        0.2607442832369943        0        
C1        C        0.75        0.24074099999999998        0.2607442832369943        0        
C2        C        0.78125        0.296297        0.2607442832369943        0        
C3        C        0.75        0.314815        0.2607442832369943        0        
C4        C        0.78125        0.259259        0.2607442832369943        0        
C1        C        0.75        0.351852        0.2607442832369943        0        
C2        C        0.78125        0.407408        0.2607442832369943        0        
C3        C        0.75        0.42592500000000005        0.2607442832369943        0        
C4        C        0.78125        0.37037        0.2607442832369943        0        
C1        C        0.75        0.46296300000000007        0.2607442832369943        0        
C2        C        0.78125        0.518519        0.2607442832369943        0        
C3        C        0.75        0.537037        0.2607442832369943        0        
C4        C        0.78125        0.481481        0.2607442832369943        0        
C1        C        0.75        0.574075        0.2607442832369943        0        
C2        C        0.78125        0.62963        0.2607442832369943        0        
C3        C        0.75        0.648148        0.2607442832369943        0        
C4        C        0.78125        0.592592        0.2607442832369943        0        
C1        C        0.8125        0.018519        0.2607442832369943        0        
C2        C        0.84375        0.074075        0.2607442832369943        0        
C3        C        0.8125        0.092592        0.2607442832369943        0        
C4        C        0.84375        0.037037        0.2607442832369943        0        
C1        C        0.8125        0.12963        0.2607442832369943        0        
C2        C        0.84375        0.185185        0.2607442832369943        0        
C3        C        0.8125        0.203703        0.2607442832369943        0        
C4        C        0.84375        0.148148        0.2607442832369943        0        
C1        C        0.8125        0.24074099999999998        0.2607442832369943        0        
C2        C        0.84375        0.296297        0.2607442832369943        0        
C3        C        0.8125        0.314815        0.2607442832369943        0        
C4        C        0.84375        0.259259        0.2607442832369943        0        
C1        C        0.8125        0.351852        0.2607442832369943        0        
C2        C        0.84375        0.407408        0.2607442832369943        0        
C3        C        0.8125        0.42592500000000005        0.2607442832369943        0        
C4        C        0.84375        0.37037        0.2607442832369943        0        
C1        C        0.8125        0.46296300000000007        0.2607442832369943        0        
C2        C        0.84375        0.518519        0.2607442832369943        0        
C3        C        0.8125        0.537037        0.2607442832369943        0        
C4        C        0.84375        0.481481        0.2607442832369943        0        
C1        C        0.8125        0.574075        0.2607442832369943        0        
C2        C        0.84375        0.62963        0.2607442832369943        0        
C3        C        0.8125        0.648148        0.2607442832369943        0        
C4        C        0.84375        0.592592        0.2607442832369943        0        
C1        C        0.875        0.018519        0.2607442832369943        0        
C2        C        0.9062500000000001        0.074075        0.2607442832369943        0        
C3        C        0.875        0.092592        0.2607442832369943        0        
C4        C        0.9062500000000001        0.037037        0.2607442832369943        0        
C1        C        0.875        0.12963        0.2607442832369943        0        
C2        C        0.9062500000000001        0.185185        0.2607442832369943        0        
C3        C        0.875        0.203703        0.2607442832369943        0        
C4        C        0.9062500000000001        0.148148        0.2607442832369943        0        
C1        C        0.875        0.24074099999999998        0.2607442832369943        0        
C2        C        0.9062500000000001        0.296297        0.2607442832369943        0        
C3        C        0.875        0.314815        0.2607442832369943        0        
C4        C        0.9062500000000001        0.259259        0.2607442832369943        0        
C1        C        0.875        0.351852        0.2607442832369943        0        
C2        C        0.9062500000000001        0.407408        0.2607442832369943        0        
C3        C        0.875        0.42592500000000005        0.2607442832369943        0        
C4        C        0.9062500000000001        0.37037        0.2607442832369943        0        
C1        C        0.875        0.46296300000000007        0.2607442832369943        0        
C2        C        0.9062500000000001        0.518519        0.2607442832369943        0        
C3        C        0.875        0.537037        0.2607442832369943        0        
C4        C        0.9062500000000001        0.481481        0.2607442832369943        0        
C1        C        0.875        0.574075        0.2607442832369943        0        
C2        C        0.9062500000000001        0.62963        0.2607442832369943        0        
C3        C        0.875        0.648148        0.2607442832369943        0        
C4        C        0.9062500000000001        0.592592        0.2607442832369943        0        
C1        C        0.9375        0.018519        0.2607442832369943        0        
C2        C        0.9687500000000001        0.074075        0.2607442832369943        0        
C3        C        0.9375        0.092592        0.2607442832369943        0        
C4        C        0.9687500000000001        0.037037        0.2607442832369943        0        
C1        C        0.9375        0.12963        0.2607442832369943        0        
C2        C        0.9687500000000001        0.185185        0.2607442832369943        0        
C3        C        0.9375        0.203703        0.2607442832369943        0        
C4        C        0.9687500000000001        0.148148        0.2607442832369943        0        
C1        C        0.9375        0.24074099999999998        0.2607442832369943        0        
C2        C        0.9687500000000001        0.296297        0.2607442832369943        0        
C3        C        0.9375        0.314815        0.2607442832369943        0        
C4        C        0.9687500000000001        0.259259        0.2607442832369943        0        
C1        C        0.9375        0.351852        0.2607442832369943        0        
C2        C        0.9687500000000001        0.407408        0.2607442832369943        0        
C3        C        0.9375        0.42592500000000005        0.2607442832369943        0        
C4        C        0.9687500000000001        0.37037        0.2607442832369943        0        
C1        C        0.9375        0.46296300000000007        0.2607442832369943        0        
C2        C        0.9687500000000001        0.518519        0.2607442832369943        0        
C3        C        0.9375        0.537037        0.2607442832369943        0        
C4        C        0.9687500000000001        0.481481        0.2607442832369943        0        
C1        C        0.9375        0.574075        0.2607442832369943        0        
C2        C        0.9687500000000001        0.62963        0.2607442832369943        0        
C3        C        0.9375        0.648148        0.2607442832369943        0        
C4        C        0.9687500000000001        0.592592        0.2607442832369943        0        
C1        C        0.0        0.685186        0.2607442832369943        0        
C1        C        0.0625        0.685186        0.2607442832369943        0        
C1        C        0.125        0.685186        0.2607442832369943        0        
C1        C        0.1875        0.685186        0.2607442832369943        0        
C1        C        0.25        0.685186        0.2607442832369943        0        
C1        C        0.3125        0.685186        0.2607442832369943        0        
C1        C        0.375        0.685186        0.2607442832369943        0        
C1        C        0.4375        0.685186        0.2607442832369943        0        
C1        C        0.5        0.685186        0.2607442832369943        0        
C1        C        0.5625        0.685186        0.2607442832369943        0        
C1        C        0.625        0.685186        0.2607442832369943        0        
C1        C        0.6875        0.685186        0.2607442832369943        0        
C1        C        0.75        0.685186        0.2607442832369943        0        
C1        C        0.8125        0.685186        0.2607442832369943        0        
C1        C        0.875        0.685186        0.2607442832369943        0        
C1        C        0.9375        0.685186        0.2607442832369943        0        
C2        C        0.03125        0.740741        0.2607442832369943        0        
C2        C        0.09375        0.740741        0.2607442832369943        0        
C2        C        0.15625        0.740741        0.2607442832369943        0        
C2        C        0.21875        0.740741        0.2607442832369943        0        
C2        C        0.28125        0.740741        0.2607442832369943        0        
C2        C        0.34375        0.740741        0.2607442832369943        0        
C2        C        0.40625        0.740741        0.2607442832369943        0        
C2        C        0.46875        0.740741        0.2607442832369943        0        
C2        C        0.53125        0.740741        0.2607442832369943        0        
C2        C        0.59375        0.740741        0.2607442832369943        0        
C2        C        0.65625        0.740741        0.2607442832369943        0        
C2        C        0.71875        0.740741        0.2607442832369943        0        
C2        C        0.78125        0.740741        0.2607442832369943        0        
C2        C        0.84375        0.740741        0.2607442832369943        0        
C2        C        0.9062500000000001        0.740741        0.2607442832369943        0        
C2        C        0.9687500000000001        0.740741        0.2607442832369943        0        
C3        C        0.0        0.759259        0.2607442832369943        0        
C3        C        0.0625        0.759259        0.2607442832369943        0        
C3        C        0.125        0.759259        0.2607442832369943        0        
C3        C        0.1875        0.759259        0.2607442832369943        0        
C3        C        0.25        0.759259        0.2607442832369943        0        
C3        C        0.3125        0.759259        0.2607442832369943        0        
C3        C        0.375        0.759259        0.2607442832369943        0        
C3        C        0.4375        0.759259        0.2607442832369943        0        
C3        C        0.5        0.759259        0.2607442832369943        0        
C3        C        0.5625        0.759259        0.2607442832369943        0        
C3        C        0.625        0.759259        0.2607442832369943        0        
C3        C        0.6875        0.759259        0.2607442832369943        0        
C3        C        0.75        0.759259        0.2607442832369943        0        
C3        C        0.8125        0.759259        0.2607442832369943        0        
C3        C        0.875        0.759259        0.2607442832369943        0        
C3        C        0.9375        0.759259        0.2607442832369943        0        
C4        C        0.03125        0.703703        0.2607442832369943        0        
C4        C        0.09375        0.703703        0.2607442832369943        0        
C4        C        0.15625        0.703703        0.2607442832369943        0        
C4        C        0.21875        0.703703        0.2607442832369943        0        
C4        C        0.28125        0.703703        0.2607442832369943        0        
C4        C        0.34375        0.703703        0.2607442832369943        0        
C4        C        0.40625        0.703703        0.2607442832369943        0        
C4        C        0.46875        0.703703        0.2607442832369943        0        
C4        C        0.53125        0.703703        0.2607442832369943        0        
C4        C        0.59375        0.703703        0.2607442832369943        0        
C4        C        0.65625        0.703703        0.2607442832369943        0        
C4        C        0.71875        0.703703        0.2607442832369943        0        
C4        C        0.78125        0.703703        0.2607442832369943        0        
C4        C        0.84375        0.703703        0.2607442832369943        0        
C4        C        0.9062500000000001        0.703703        0.2607442832369943        0        
C4        C        0.9687500000000001        0.703703        0.2607442832369943        0        
C1        C        0.0        0.796297        0.2607442832369943        0        
C1        C        0.0625        0.796297        0.2607442832369943        0        
C1        C        0.125        0.796297        0.2607442832369943        0        
C1        C        0.1875        0.796297        0.2607442832369943        0        
C1        C        0.25        0.796297        0.2607442832369943        0        
C1        C        0.3125        0.796297        0.2607442832369943        0        
C1        C        0.375        0.796297        0.2607442832369943        0        
C1        C        0.4375        0.796297        0.2607442832369943        0        
C1        C        0.5        0.796297        0.2607442832369943        0        
C1        C        0.5625        0.796297        0.2607442832369943        0        
C1        C        0.625        0.796297        0.2607442832369943        0        
C1        C        0.6875        0.796297        0.2607442832369943        0        
C1        C        0.75        0.796297        0.2607442832369943        0        
C1        C        0.8125        0.796297        0.2607442832369943        0        
C1        C        0.875        0.796297        0.2607442832369943        0        
C1        C        0.9375        0.796297        0.2607442832369943        0        
C2        C        0.03125        0.851852        0.2607442832369943        0        
C2        C        0.09375        0.851852        0.2607442832369943        0        
C2        C        0.15625        0.851852        0.2607442832369943        0        
C2        C        0.21875        0.851852        0.2607442832369943        0        
C2        C        0.28125        0.851852        0.2607442832369943        0        
C2        C        0.34375        0.851852        0.2607442832369943        0        
C2        C        0.40625        0.851852        0.2607442832369943        0        
C2        C        0.46875        0.851852        0.2607442832369943        0        
C2        C        0.53125        0.851852        0.2607442832369943        0        
C2        C        0.59375        0.851852        0.2607442832369943        0        
C2        C        0.65625        0.851852        0.2607442832369943        0        
C2        C        0.71875        0.851852        0.2607442832369943        0        
C2        C        0.78125        0.851852        0.2607442832369943        0        
C2        C        0.84375        0.851852        0.2607442832369943        0        
C2        C        0.9062500000000001        0.851852        0.2607442832369943        0        
C2        C        0.9687500000000001        0.851852        0.2607442832369943        0        
C3        C        0.0        0.87037        0.2607442832369943        0        
C3        C        0.0625        0.87037        0.2607442832369943        0        
C3        C        0.125        0.87037        0.2607442832369943        0        
C3        C        0.1875        0.87037        0.2607442832369943        0        
C3        C        0.25        0.87037        0.2607442832369943        0        
C3        C        0.3125        0.87037        0.2607442832369943        0        
C3        C        0.375        0.87037        0.2607442832369943        0        
C3        C        0.4375        0.87037        0.2607442832369943        0        
C3        C        0.5        0.87037        0.2607442832369943        0        
C3        C        0.5625        0.87037        0.2607442832369943        0        
C3        C        0.625        0.87037        0.2607442832369943        0        
C3        C        0.6875        0.87037        0.2607442832369943        0        
C3        C        0.75        0.87037        0.2607442832369943        0        
C3        C        0.8125        0.87037        0.2607442832369943        0        
C3        C        0.875        0.87037        0.2607442832369943        0        
C3        C        0.9375        0.87037        0.2607442832369943        0        
C4        C        0.03125        0.814814        0.2607442832369943        0        
C4        C        0.09375        0.814814        0.2607442832369943        0        
C4        C        0.15625        0.814814        0.2607442832369943        0        
C4        C        0.21875        0.814814        0.2607442832369943        0        
C4        C        0.28125        0.814814        0.2607442832369943        0        
C4        C        0.34375        0.814814        0.2607442832369943        0        
C4        C        0.40625        0.814814        0.2607442832369943        0        
C4        C        0.46875        0.814814        0.2607442832369943        0        
C4        C        0.53125        0.814814        0.2607442832369943        0        
C4        C        0.59375        0.814814        0.2607442832369943        0        
C4        C        0.65625        0.814814        0.2607442832369943        0        
C4        C        0.71875        0.814814        0.2607442832369943        0        
C4        C        0.78125        0.814814        0.2607442832369943        0        
C4        C        0.84375        0.814814        0.2607442832369943        0        
C4        C        0.9062500000000001        0.814814        0.2607442832369943        0        
C4        C        0.9687500000000001        0.814814        0.2607442832369943        0        
C1        C        0.0        0.907408        0.2607442832369943        0        
C1        C        0.0625        0.907408        0.2607442832369943        0        
C1        C        0.125        0.907408        0.2607442832369943        0        
C1        C        0.1875        0.907408        0.2607442832369943        0        
C1        C        0.25        0.907408        0.2607442832369943        0        
C1        C        0.3125        0.907408        0.2607442832369943        0        
C1        C        0.375        0.907408        0.2607442832369943        0        
C1        C        0.4375        0.907408        0.2607442832369943        0        
C1        C        0.5        0.907408        0.2607442832369943        0        
C1        C        0.5625        0.907408        0.2607442832369943        0        
C1        C        0.625        0.907408        0.2607442832369943        0        
C1        C        0.6875        0.907408        0.2607442832369943        0        
C1        C        0.75        0.907408        0.2607442832369943        0        
C1        C        0.8125        0.907408        0.2607442832369943        0        
C1        C        0.875        0.907408        0.2607442832369943        0        
C1        C        0.9375        0.907408        0.2607442832369943        0        
C2        C        0.03125        0.962963        0.2607442832369943        0        
C2        C        0.09375        0.962963        0.2607442832369943        0        
C2        C        0.15625        0.962963        0.2607442832369943        0        
C2        C        0.21875        0.962963        0.2607442832369943        0        
C2        C        0.28125        0.962963        0.2607442832369943        0        
C2        C        0.34375        0.962963        0.2607442832369943        0        
C2        C        0.40625        0.962963        0.2607442832369943        0        
C2        C        0.46875        0.962963        0.2607442832369943        0        
C2        C        0.53125        0.962963        0.2607442832369943        0        
C2        C        0.59375        0.962963        0.2607442832369943        0        
C2        C        0.65625        0.962963        0.2607442832369943        0        
C2        C        0.71875        0.962963        0.2607442832369943        0        
C2        C        0.78125        0.962963        0.2607442832369943        0        
C2        C        0.84375        0.962963        0.2607442832369943        0        
C2        C        0.9062500000000001        0.962963        0.2607442832369943        0        
C2        C        0.9687500000000001        0.962963        0.2607442832369943        0        
C3        C        0.0        0.9814809999999999        0.2607442832369943        0        
C3        C        0.0625        0.9814809999999999        0.2607442832369943        0        
C3        C        0.125        0.9814809999999999        0.2607442832369943        0        
C3        C        0.1875        0.9814809999999999        0.2607442832369943        0        
C3        C        0.25        0.9814809999999999        0.2607442832369943        0        
C3        C        0.3125        0.9814809999999999        0.2607442832369943        0        
C3        C        0.375        0.9814809999999999        0.2607442832369943        0        
C3        C        0.4375        0.9814809999999999        0.2607442832369943        0        
C3        C        0.5        0.9814809999999999        0.2607442832369943        0        
C3        C        0.5625        0.9814809999999999        0.2607442832369943        0        
C3        C        0.625        0.9814809999999999        0.2607442832369943        0        
C3        C        0.6875        0.9814809999999999        0.2607442832369943        0        
C3        C        0.75        0.9814809999999999        0.2607442832369943        0        
C3        C        0.8125        0.9814809999999999        0.2607442832369943        0        
C3        C        0.875        0.9814809999999999        0.2607442832369943        0        
C3        C        0.9375        0.9814809999999999        0.2607442832369943        0        
C4        C        0.03125        0.925925        0.2607442832369943        0        
C4        C        0.09375        0.925925        0.2607442832369943        0        
C4        C        0.15625        0.925925        0.2607442832369943        0        
C4        C        0.21875        0.925925        0.2607442832369943        0        
C4        C        0.28125        0.925925        0.2607442832369943        0        
C4        C        0.34375        0.925925        0.2607442832369943        0        
C4        C        0.40625        0.925925        0.2607442832369943        0        
C4        C        0.46875        0.925925        0.2607442832369943        0        
C4        C        0.53125        0.925925        0.2607442832369943        0        
C4        C        0.59375        0.925925        0.2607442832369943        0        
C4        C        0.65625        0.925925        0.2607442832369943        0        
C4        C        0.71875        0.925925        0.2607442832369943        0        
C4        C        0.78125        0.925925        0.2607442832369943        0        
C4        C        0.84375        0.925925        0.2607442832369943        0        
C4        C        0.9062500000000001        0.925925        0.2607442832369943        0        
C4        C        0.9687500000000001        0.925925        0.2607442832369943        0        
C_COOH        C        0.0        0.018519        0.02317164739884393        0.55        
O1_COOH        O        0.027625886585435258        0.026856373934737558        0.010597687861271674        -0.5        
O2_COOH        O        -0.02689786533940423        0.010401339750896497        0.0        -0.58        
H_COOH        H        -0.045780654800290074        0.004702594981947525        0.016871676300578037        0.45        
O_OH        O        0.0        0.203703        0.025686098265895952        -0.64        
H_OH        H        -0.010660093258740542        0.22444667106480165        0.01596936416184971        0.44        
C_COOH        C        0.0        0.351852        0.02317164739884393        0.55        
O1_COOH        O        0.024115117972851024        0.36800614380857216        0.010597687861271674        -0.5        
O2_COOH        O        -0.023479615536377688        0.33612356415441796        0.0        -0.58        
H_COOH        H        -0.03996273162018303        0.32508191683878174        0.016871676300578037        0.45        
C_COOH        C        0.0        0.537037        0.02317164739884393        0.55        
O1_COOH        O        0.027627804674221674        0.5453676727551466        0.010597687861271674        -0.5        
O2_COOH        O        -0.02689973288105675        0.5289258643352096        0.0        -0.58        
H_COOH        H        -0.04578383339006441        0.5232316999428201        0.016871676300578037        0.45        
C_COOH        C        0.25        0.018519        0.02317164739884393        0.55        
O1_COOH        O        0.22290470354032169        0.028524585748841768        0.010597687861271674        -0.5        
O2_COOH        O        0.2763812577833394        0.008777090096695892        0.0        -0.58        
H_COOH        H        0.2949013793673515        0.0019380926026633524        0.016871676300578037        0.45        
O_OH        O        0.25        0.203703        0.025686098265895952        -0.64        
H_OH        H        0.26929268051326277        0.21626440604456337        0.01596936416184971        0.44        
O_CO        O        0.25        0.351852        0.025686098265895952        -0.5        
O_OH        O        0.25        0.537037        0.025686098265895952        -0.64        
H_OH        H        0.27243527395871675        0.5414624622710553        0.01596936416184971        0.44        
C_COOH        C        0.5        0.018519        0.02317164739884393        0.55        
O1_COOH        O        0.47425075641232123        0.03175071996941675        0.010597687861271674        -0.5        
O2_COOH        O        0.5250706772602929        0.005635973754112366        0.0        -0.58        
H_COOH        H        0.5426707475400118        -0.003408144399895426        0.016871676300578037        0.45        
C_COOH        C        0.5        0.203703        0.02317164739884393        0.55        
O1_COOH        O        0.4771945712891617        0.22175073956247607        0.010597687861271674        -0.5        
O2_COOH        O        0.522204440338031        0.1861308700728449        0.0        -0.58        
H_COOH        H        0.5377923602978211        0.17379491606285466        0.016871676300578037        0.45        
O_OH        O        0.5        0.351852        0.025686098265895952        -0.64        
H_OH        H        0.49859616866010553        0.3752611297398763        0.01596936416184971        0.44        
O_OH        O        0.5        0.537037        0.025686098265895952        -0.64        
H_OH        H        0.4858673548216929        0.5554642617940042        0.01596936416184971        0.44        
C_COOH        C        0.75        0.018519        0.02317164739884393        0.55        
O1_COOH        O        0.7612608234330082        0.04572573566741633        0.010597687861271674        -0.5        
O2_COOH        O        0.7390359315211427        -0.007970760248735222        0.0        -0.58        
H_COOH        H        0.7313389565341459        -0.02656705253195361        0.016871676300578037        0.45        
O_CO        O        0.75        0.203703        0.025686098265895952        -0.5        
O_CO        O        0.75        0.351852        0.025686098265895952        -0.5        
C_COOH        C        0.75        0.537037        0.02317164739884393        0.55        
O1_COOH        O        0.767792156682741        0.5602796541683023        0.010597687861271674        -0.5        
O2_COOH        O        0.7326767176115804        0.5144068563477436        0.0        -0.58        
H_COOH        H        0.7205154590884812        0.49852008493807515        0.016871676300578037        0.45        
O_CO        O        0.0        0.685186        0.025686098265895952        -0.5        
O_CO        O        0.25        0.685186        0.025686098265895952        -0.5        
C_COOH        C        0.5        0.685186        0.02317164739884393        0.55        
O1_COOH        O        0.4725976193659259        0.6942675234956734        0.010597687861271674        -0.5        
O2_COOH        O        0.5266802494100954        0.6763438006625118        0.0        -0.58        
H_COOH        H        0.5454102685405249        0.6701364163086174        0.016871676300578037        0.45        
O_CO        O        0.75        0.685186        0.025686098265895952        -0.5        
O_OH        O        0.0        0.87037        0.025686098265895952        -0.64        
H_OH        H        -0.0018082953628900935        0.8937498656644987        0.01596936416184971        0.44        
O_OH        O        0.25        0.87037        0.025686098265895952        -0.64        
H_OH        H        0.23420716220713816        0.8873170722371595        0.01596936416184971        0.44        
O_CO        O        0.5        0.87037        0.025686098265895952        -0.5        
C_COOH        C        0.75        0.87037        0.02317164739884393        0.55        
O1_COOH        O        0.7252255821666905        0.8854360424039028        0.010597687861271674        -0.5        
O2_COOH        O        0.774121540956945        0.8557009909702017        0.0        -0.58        
H_COOH        H        0.7910553003320752        0.845403080499822        0.016871676300578037        0.45        
C_COOH        C        0.0        0.018519        0.3046745375722543        0.55        
O1_COOH        O        -0.026963794159838284        0.02889223110126146        0.31724849710982655        -0.5        
O2_COOH        O        0.026253220945789153        0.008419133252434603        0.3278461849710983        -0.58        
H_COOH        H        0.04468345834694178        0.001328843559523847        0.3109745086705202        0.45        
O_OH        O        0.0        0.203703        0.3021600867052023        -0.64        
H_OH        H        -0.020416148431635157        0.2142278302347928        0.31187682080924856        0.44        
C_COOH        C        0.0        0.351852        0.3046745375722543        0.55        
O1_COOH        O        0.004919596819157565        0.3809783137061613        0.31724849710982655        -0.5        
O2_COOH        O        -0.0047899513507604855        0.32349324809248264        0.3278461849710983        -0.58        
H_COOH        H        -0.008152584100348761        0.30358488975674985        0.3109745086705202        0.45        
C_COOH        C        0.0        0.537037        0.3046745375722543        0.55        
O1_COOH        O        -0.017760687142891526        0.5603050065165304        0.31724849710982655        -0.5        
O2_COOH        O        0.017292642161089854        0.5143821721065134        0.3278461849710983        -0.58        
H_COOH        H        0.029432390688715216        0.4984780719116692        0.3109745086705202        0.45        
C_COOH        C        0.25        0.018519        0.3046745375722543        0.55        
O1_COOH        O        0.2738881751592217        0.03502468764680538        0.31724849710982655        -0.5        
O2_COOH        O        0.22674134668403356        0.0024482845033214342        0.3278461849710983        -0.58        
H_COOH        H        0.21041335008774836        -0.008833649337168912        0.3109745086705202        0.45        
O_OH        O        0.25        0.203703        0.3021600867052023        -0.64        
H_OH        H        0.2689241040396328        0.21684203263938537        0.31187682080924856        0.44        
O_CO        O        0.25        0.351852        0.3021600867052023        -0.5        
O_OH        O        0.25        0.537037        0.3021600867052023        -0.64        
H_OH        H        0.25318179137886765        0.5602618729140445        0.31187682080924856        0.44        
C_COOH        C        0.5        0.018519        0.3046745375722543        0.55        
O1_COOH        O        0.5102832806240877        0.04613063222515363        0.31724849710982655        -0.5        
O2_COOH        O        0.48998771327687124        -0.008364986622347713        0.3278461849710983        -0.58        
H_COOH        H        0.48295890635002936        -0.027238032972066242        0.3109745086705202        0.45        
C_COOH        C        0.5        0.203703        0.3046745375722543        0.55        
O1_COOH        O        0.494321291361425        0.2326833913279946        0.31724849710982655        -0.5        
O2_COOH        O        0.5055290583992562        0.17548632499798916        0.3278461849710983        -0.58        
H_COOH        H        0.509410557706086        0.15567770722754223        0.3109745086705202        0.45        
O_OH        O        0.5        0.351852        0.3021600867052023        -0.64        
H_OH        H        0.5184755166153874        0.3656474965645162        0.31187682080924856        0.44        
O_OH        O        0.5        0.537037        0.3021600867052023        -0.64        
H_OH        H        0.5101263343606066        0.5580606301294004        0.31187682080924856        0.44        
C_COOH        C        0.75        0.018519        0.3046745375722543        0.55        
O1_COOH        O        0.7415531315973283        0.046779449665704145        0.31724849710982655        -0.5        
O2_COOH        O        0.7582242692241601        -0.008996705864798577        0.3278461849710983        -0.58        
H_COOH        H        0.7639978554277447        -0.0283132305836394        0.3109745086705202        0.45        
O_CO        O        0.75        0.203703        0.3021600867052023        -0.5        
O_CO        O        0.75        0.351852        0.3021600867052023        -0.5        
C_COOH        C        0.75        0.537037        0.3046745375722543        0.55        
O1_COOH        O        0.7395581898360536        0.5645858575477541        0.31724849710982655        -0.5        
O2_COOH        O        0.7601666385555035        0.5102141337624838        0.3278461849710983        -0.58        
H_COOH        H        0.7673038032689896        0.49138399503178926        0.3109745086705202        0.45        
O_CO        O        0.0        0.685186        0.3021600867052023        -0.5        
O_CO        O        0.25        0.685186        0.3021600867052023        -0.5        
C_COOH        C        0.5        0.685186        0.3046745375722543        0.55        
O1_COOH        O        0.5073014412606988        0.7137808268237962        0.31724849710982655        -0.5        
O2_COOH        O        0.49289097263153947        0.6573447287730503        0.3278461849710983        -0.58        
H_COOH        H        0.4879003064438528        0.6377996512634327        0.3109745086705202        0.45        
O_CO        O        0.75        0.685186        0.3021600867052023        -0.5        
O_OH        O        0.0        0.87037        0.3021600867052023        -0.64        
H_OH        H        0.02214229349219123        0.876144879555604        0.31187682080924856        0.44        
O_OH        O        0.25        0.87037        0.3021600867052023        -0.64        
H_OH        H        0.23509300375152736        0.8881425827964153        0.31187682080924856        0.44        
O_CO        O        0.5        0.87037        0.3021600867052023        -0.5        
C_COOH        C        0.75        0.87037        0.3046745375722543        0.55        
O1_COOH        O        0.7287461096249118        0.8903140793937045        0.31724849710982655        -0.5        
O2_COOH        O        0.7706937894818182        0.8509515042282452        0.3278461849710983        -0.58        
H_COOH        H        0.7852212051336702        0.8373193678977839        0.3109745086705202        0.45        
