data_graphite_ortho

_audit_creation_method RASPA-1.0
_audit_creation_date 2012-2-3
_audit_author_name 'David Dubbeldam'

_cell_length_a    39.36    
_cell_length_b    38.34    
_cell_length_c    65.3    
_cell_angle_alpha 90
_cell_angle_beta  90
_cell_angle_gamma 90
_cell_volume      98541.77      

_symmetry_cell_setting          triclinic
_symmetry_space_group_name_Hall 'P 1'
_symmetry_space_group_name_H-M  'P 1'
_symmetry_Int_Tables_number     1

_symmetry_equiv_pos_as_xyz 'x,y,z'

loop_
_atom_site_label
_atom_site_type_symbol
_atom_site_fract_x
_atom_site_fract_y
_atom_site_fract_z
_atom_site_charge
C1        C        0.0        0.018519        0.183767        0        
C2        C        0.03125        0.074075        0.183767        0        
C3        C        0.0        0.092592        0.183767        0        
C4        C        0.03125        0.037037        0.183767        0        
C1        C        0.0        0.12963        0.183767        0        
C2        C        0.03125        0.185185        0.183767        0        
C3        C        0.0        0.203703        0.183767        0        
C4        C        0.03125        0.148148        0.183767        0        
C1        C        0.0        0.24074099999999998        0.183767        0        
C2        C        0.03125        0.296297        0.183767        0        
C3        C        0.0        0.314815        0.183767        0        
C4        C        0.03125        0.259259        0.183767        0        
C1        C        0.0        0.351852        0.183767        0        
C2        C        0.03125        0.407408        0.183767        0        
C3        C        0.0        0.42592500000000005        0.183767        0        
C4        C        0.03125        0.37037        0.183767        0        
C1        C        0.0        0.46296300000000007        0.183767        0        
C2        C        0.03125        0.518519        0.183767        0        
C3        C        0.0        0.537037        0.183767        0        
C4        C        0.03125        0.481481        0.183767        0        
C1        C        0.0        0.574075        0.183767        0        
C2        C        0.03125        0.62963        0.183767        0        
C3        C        0.0        0.648148        0.183767        0        
C4        C        0.03125        0.592592        0.183767        0        
C1        C        0.0625        0.018519        0.183767        0        
C2        C        0.09375        0.074075        0.183767        0        
C3        C        0.0625        0.092592        0.183767        0        
C4        C        0.09375        0.037037        0.183767        0        
C1        C        0.0625        0.12963        0.183767        0        
C2        C        0.09375        0.185185        0.183767        0        
C3        C        0.0625        0.203703        0.183767        0        
C4        C        0.09375        0.148148        0.183767        0        
C1        C        0.0625        0.24074099999999998        0.183767        0        
C2        C        0.09375        0.296297        0.183767        0        
C3        C        0.0625        0.314815        0.183767        0        
C4        C        0.09375        0.259259        0.183767        0        
C1        C        0.0625        0.351852        0.183767        0        
C2        C        0.09375        0.407408        0.183767        0        
C3        C        0.0625        0.42592500000000005        0.183767        0        
C4        C        0.09375        0.37037        0.183767        0        
C1        C        0.0625        0.46296300000000007        0.183767        0        
C2        C        0.09375        0.518519        0.183767        0        
C3        C        0.0625        0.537037        0.183767        0        
C4        C        0.09375        0.481481        0.183767        0        
C1        C        0.0625        0.574075        0.183767        0        
C2        C        0.09375        0.62963        0.183767        0        
C3        C        0.0625        0.648148        0.183767        0        
C4        C        0.09375        0.592592        0.183767        0        
C1        C        0.125        0.018519        0.183767        0        
C2        C        0.15625        0.074075        0.183767        0        
C3        C        0.125        0.092592        0.183767        0        
C4        C        0.15625        0.037037        0.183767        0        
C1        C        0.125        0.12963        0.183767        0        
C2        C        0.15625        0.185185        0.183767        0        
C3        C        0.125        0.203703        0.183767        0        
C4        C        0.15625        0.148148        0.183767        0        
C1        C        0.125        0.24074099999999998        0.183767        0        
C2        C        0.15625        0.296297        0.183767        0        
C3        C        0.125        0.314815        0.183767        0        
C4        C        0.15625        0.259259        0.183767        0        
C1        C        0.125        0.351852        0.183767        0        
C2        C        0.15625        0.407408        0.183767        0        
C3        C        0.125        0.42592500000000005        0.183767        0        
C4        C        0.15625        0.37037        0.183767        0        
C1        C        0.125        0.46296300000000007        0.183767        0        
C2        C        0.15625        0.518519        0.183767        0        
C3        C        0.125        0.537037        0.183767        0        
C4        C        0.15625        0.481481        0.183767        0        
C1        C        0.125        0.574075        0.183767        0        
C2        C        0.15625        0.62963        0.183767        0        
C3        C        0.125        0.648148        0.183767        0        
C4        C        0.15625        0.592592        0.183767        0        
C1        C        0.1875        0.018519        0.183767        0        
C2        C        0.21875        0.074075        0.183767        0        
C3        C        0.1875        0.092592        0.183767        0        
C4        C        0.21875        0.037037        0.183767        0        
C1        C        0.1875        0.12963        0.183767        0        
C2        C        0.21875        0.185185        0.183767        0        
C3        C        0.1875        0.203703        0.183767        0        
C4        C        0.21875        0.148148        0.183767        0        
C1        C        0.1875        0.24074099999999998        0.183767        0        
C2        C        0.21875        0.296297        0.183767        0        
C3        C        0.1875        0.314815        0.183767        0        
C4        C        0.21875        0.259259        0.183767        0        
C1        C        0.1875        0.351852        0.183767        0        
C2        C        0.21875        0.407408        0.183767        0        
C3        C        0.1875        0.42592500000000005        0.183767        0        
C4        C        0.21875        0.37037        0.183767        0        
C1        C        0.1875        0.46296300000000007        0.183767        0        
C2        C        0.21875        0.518519        0.183767        0        
C3        C        0.1875        0.537037        0.183767        0        
C4        C        0.21875        0.481481        0.183767        0        
C1        C        0.1875        0.574075        0.183767        0        
C2        C        0.21875        0.62963        0.183767        0        
C3        C        0.1875        0.648148        0.183767        0        
C4        C        0.21875        0.592592        0.183767        0        
C1        C        0.25        0.018519        0.183767        0        
C2        C        0.28125        0.074075        0.183767        0        
C3        C        0.25        0.092592        0.183767        0        
C4        C        0.28125        0.037037        0.183767        0        
C1        C        0.25        0.12963        0.183767        0        
C2        C        0.28125        0.185185        0.183767        0        
C3        C        0.25        0.203703        0.183767        0        
C4        C        0.28125        0.148148        0.183767        0        
C1        C        0.25        0.24074099999999998        0.183767        0        
C2        C        0.28125        0.296297        0.183767        0        
C3        C        0.25        0.314815        0.183767        0        
C4        C        0.28125        0.259259        0.183767        0        
C1        C        0.25        0.351852        0.183767        0        
C2        C        0.28125        0.407408        0.183767        0        
C3        C        0.25        0.42592500000000005        0.183767        0        
C4        C        0.28125        0.37037        0.183767        0        
C1        C        0.25        0.46296300000000007        0.183767        0        
C2        C        0.28125        0.518519        0.183767        0        
C3        C        0.25        0.537037        0.183767        0        
C4        C        0.28125        0.481481        0.183767        0        
C1        C        0.25        0.574075        0.183767        0        
C2        C        0.28125        0.62963        0.183767        0        
C3        C        0.25        0.648148        0.183767        0        
C4        C        0.28125        0.592592        0.183767        0        
C1        C        0.3125        0.018519        0.183767        0        
C2        C        0.34375        0.074075        0.183767        0        
C3        C        0.3125        0.092592        0.183767        0        
C4        C        0.34375        0.037037        0.183767        0        
C1        C        0.3125        0.12963        0.183767        0        
C2        C        0.34375        0.185185        0.183767        0        
C3        C        0.3125        0.203703        0.183767        0        
C4        C        0.34375        0.148148        0.183767        0        
C1        C        0.3125        0.24074099999999998        0.183767        0        
C2        C        0.34375        0.296297        0.183767        0        
C3        C        0.3125        0.314815        0.183767        0        
C4        C        0.34375        0.259259        0.183767        0        
C1        C        0.3125        0.351852        0.183767        0        
C2        C        0.34375        0.407408        0.183767        0        
C3        C        0.3125        0.42592500000000005        0.183767        0        
C4        C        0.34375        0.37037        0.183767        0        
C1        C        0.3125        0.46296300000000007        0.183767        0        
C2        C        0.34375        0.518519        0.183767        0        
C3        C        0.3125        0.537037        0.183767        0        
C4        C        0.34375        0.481481        0.183767        0        
C1        C        0.3125        0.574075        0.183767        0        
C2        C        0.34375        0.62963        0.183767        0        
C3        C        0.3125        0.648148        0.183767        0        
C4        C        0.34375        0.592592        0.183767        0        
C1        C        0.375        0.018519        0.183767        0        
C2        C        0.40625        0.074075        0.183767        0        
C3        C        0.375        0.092592        0.183767        0        
C4        C        0.40625        0.037037        0.183767        0        
C1        C        0.375        0.12963        0.183767        0        
C2        C        0.40625        0.185185        0.183767        0        
C3        C        0.375        0.203703        0.183767        0        
C4        C        0.40625        0.148148        0.183767        0        
C1        C        0.375        0.24074099999999998        0.183767        0        
C2        C        0.40625        0.296297        0.183767        0        
C3        C        0.375        0.314815        0.183767        0        
C4        C        0.40625        0.259259        0.183767        0        
C1        C        0.375        0.351852        0.183767        0        
C2        C        0.40625        0.407408        0.183767        0        
C3        C        0.375        0.42592500000000005        0.183767        0        
C4        C        0.40625        0.37037        0.183767        0        
C1        C        0.375        0.46296300000000007        0.183767        0        
C2        C        0.40625        0.518519        0.183767        0        
C3        C        0.375        0.537037        0.183767        0        
C4        C        0.40625        0.481481        0.183767        0        
C1        C        0.375        0.574075        0.183767        0        
C2        C        0.40625        0.62963        0.183767        0        
C3        C        0.375        0.648148        0.183767        0        
C4        C        0.40625        0.592592        0.183767        0        
C1        C        0.4375        0.018519        0.183767        0        
C2        C        0.46875        0.074075        0.183767        0        
C3        C        0.4375        0.092592        0.183767        0        
C4        C        0.46875        0.037037        0.183767        0        
C1        C        0.4375        0.12963        0.183767        0        
C2        C        0.46875        0.185185        0.183767        0        
C3        C        0.4375        0.203703        0.183767        0        
C4        C        0.46875        0.148148        0.183767        0        
C1        C        0.4375        0.24074099999999998        0.183767        0        
C2        C        0.46875        0.296297        0.183767        0        
C3        C        0.4375        0.314815        0.183767        0        
C4        C        0.46875        0.259259        0.183767        0        
C1        C        0.4375        0.351852        0.183767        0        
C2        C        0.46875        0.407408        0.183767        0        
C3        C        0.4375        0.42592500000000005        0.183767        0        
C4        C        0.46875        0.37037        0.183767        0        
C1        C        0.4375        0.46296300000000007        0.183767        0        
C2        C        0.46875        0.518519        0.183767        0        
C3        C        0.4375        0.537037        0.183767        0        
C4        C        0.46875        0.481481        0.183767        0        
C1        C        0.4375        0.574075        0.183767        0        
C2        C        0.46875        0.62963        0.183767        0        
C3        C        0.4375        0.648148        0.183767        0        
C4        C        0.46875        0.592592        0.183767        0        
C1        C        0.5        0.018519        0.183767        0        
C2        C        0.53125        0.074075        0.183767        0        
C3        C        0.5        0.092592        0.183767        0        
C4        C        0.53125        0.037037        0.183767        0        
C1        C        0.5        0.12963        0.183767        0        
C2        C        0.53125        0.185185        0.183767        0        
C3        C        0.5        0.203703        0.183767        0        
C4        C        0.53125        0.148148        0.183767        0        
C1        C        0.5        0.24074099999999998        0.183767        0        
C2        C        0.53125        0.296297        0.183767        0        
C3        C        0.5        0.314815        0.183767        0        
C4        C        0.53125        0.259259        0.183767        0        
C1        C        0.5        0.351852        0.183767        0        
C2        C        0.53125        0.407408        0.183767        0        
C3        C        0.5        0.42592500000000005        0.183767        0        
C4        C        0.53125        0.37037        0.183767        0        
C1        C        0.5        0.46296300000000007        0.183767        0        
C2        C        0.53125        0.518519        0.183767        0        
C3        C        0.5        0.537037        0.183767        0        
C4        C        0.53125        0.481481        0.183767        0        
C1        C        0.5        0.574075        0.183767        0        
C2        C        0.53125        0.62963        0.183767        0        
C3        C        0.5        0.648148        0.183767        0        
C4        C        0.53125        0.592592        0.183767        0        
C1        C        0.5625        0.018519        0.183767        0        
C2        C        0.59375        0.074075        0.183767        0        
C3        C        0.5625        0.092592        0.183767        0        
C4        C        0.59375        0.037037        0.183767        0        
C1        C        0.5625        0.12963        0.183767        0        
C2        C        0.59375        0.185185        0.183767        0        
C3        C        0.5625        0.203703        0.183767        0        
C4        C        0.59375        0.148148        0.183767        0        
C1        C        0.5625        0.24074099999999998        0.183767        0        
C2        C        0.59375        0.296297        0.183767        0        
C3        C        0.5625        0.314815        0.183767        0        
C4        C        0.59375        0.259259        0.183767        0        
C1        C        0.5625        0.351852        0.183767        0        
C2        C        0.59375        0.407408        0.183767        0        
C3        C        0.5625        0.42592500000000005        0.183767        0        
C4        C        0.59375        0.37037        0.183767        0        
C1        C        0.5625        0.46296300000000007        0.183767        0        
C2        C        0.59375        0.518519        0.183767        0        
C3        C        0.5625        0.537037        0.183767        0        
C4        C        0.59375        0.481481        0.183767        0        
C1        C        0.5625        0.574075        0.183767        0        
C2        C        0.59375        0.62963        0.183767        0        
C3        C        0.5625        0.648148        0.183767        0        
C4        C        0.59375        0.592592        0.183767        0        
C1        C        0.625        0.018519        0.183767        0        
C2        C        0.65625        0.074075        0.183767        0        
C3        C        0.625        0.092592        0.183767        0        
C4        C        0.65625        0.037037        0.183767        0        
C1        C        0.625        0.12963        0.183767        0        
C2        C        0.65625        0.185185        0.183767        0        
C3        C        0.625        0.203703        0.183767        0        
C4        C        0.65625        0.148148        0.183767        0        
C1        C        0.625        0.24074099999999998        0.183767        0        
C2        C        0.65625        0.296297        0.183767        0        
C3        C        0.625        0.314815        0.183767        0        
C4        C        0.65625        0.259259        0.183767        0        
C1        C        0.625        0.351852        0.183767        0        
C2        C        0.65625        0.407408        0.183767        0        
C3        C        0.625        0.42592500000000005        0.183767        0        
C4        C        0.65625        0.37037        0.183767        0        
C1        C        0.625        0.46296300000000007        0.183767        0        
C2        C        0.65625        0.518519        0.183767        0        
C3        C        0.625        0.537037        0.183767        0        
C4        C        0.65625        0.481481        0.183767        0        
C1        C        0.625        0.574075        0.183767        0        
C2        C        0.65625        0.62963        0.183767        0        
C3        C        0.625        0.648148        0.183767        0        
C4        C        0.65625        0.592592        0.183767        0        
C1        C        0.6875        0.018519        0.183767        0        
C2        C        0.71875        0.074075        0.183767        0        
C3        C        0.6875        0.092592        0.183767        0        
C4        C        0.71875        0.037037        0.183767        0        
C1        C        0.6875        0.12963        0.183767        0        
C2        C        0.71875        0.185185        0.183767        0        
C3        C        0.6875        0.203703        0.183767        0        
C4        C        0.71875        0.148148        0.183767        0        
C1        C        0.6875        0.24074099999999998        0.183767        0        
C2        C        0.71875        0.296297        0.183767        0        
C3        C        0.6875        0.314815        0.183767        0        
C4        C        0.71875        0.259259        0.183767        0        
C1        C        0.6875        0.351852        0.183767        0        
C2        C        0.71875        0.407408        0.183767        0        
C3        C        0.6875        0.42592500000000005        0.183767        0        
C4        C        0.71875        0.37037        0.183767        0        
C1        C        0.6875        0.46296300000000007        0.183767        0        
C2        C        0.71875        0.518519        0.183767        0        
C3        C        0.6875        0.537037        0.183767        0        
C4        C        0.71875        0.481481        0.183767        0        
C1        C        0.6875        0.574075        0.183767        0        
C2        C        0.71875        0.62963        0.183767        0        
C3        C        0.6875        0.648148        0.183767        0        
C4        C        0.71875        0.592592        0.183767        0        
C1        C        0.75        0.018519        0.183767        0        
C2        C        0.78125        0.074075        0.183767        0        
C3        C        0.75        0.092592        0.183767        0        
C4        C        0.78125        0.037037        0.183767        0        
C1        C        0.75        0.12963        0.183767        0        
C2        C        0.78125        0.185185        0.183767        0        
C3        C        0.75        0.203703        0.183767        0        
C4        C        0.78125        0.148148        0.183767        0        
C1        C        0.75        0.24074099999999998        0.183767        0        
C2        C        0.78125        0.296297        0.183767        0        
C3        C        0.75        0.314815        0.183767        0        
C4        C        0.78125        0.259259        0.183767        0        
C1        C        0.75        0.351852        0.183767        0        
C2        C        0.78125        0.407408        0.183767        0        
C3        C        0.75        0.42592500000000005        0.183767        0        
C4        C        0.78125        0.37037        0.183767        0        
C1        C        0.75        0.46296300000000007        0.183767        0        
C2        C        0.78125        0.518519        0.183767        0        
C3        C        0.75        0.537037        0.183767        0        
C4        C        0.78125        0.481481        0.183767        0        
C1        C        0.75        0.574075        0.183767        0        
C2        C        0.78125        0.62963        0.183767        0        
C3        C        0.75        0.648148        0.183767        0        
C4        C        0.78125        0.592592        0.183767        0        
C1        C        0.8125        0.018519        0.183767        0        
C2        C        0.84375        0.074075        0.183767        0        
C3        C        0.8125        0.092592        0.183767        0        
C4        C        0.84375        0.037037        0.183767        0        
C1        C        0.8125        0.12963        0.183767        0        
C2        C        0.84375        0.185185        0.183767        0        
C3        C        0.8125        0.203703        0.183767        0        
C4        C        0.84375        0.148148        0.183767        0        
C1        C        0.8125        0.24074099999999998        0.183767        0        
C2        C        0.84375        0.296297        0.183767        0        
C3        C        0.8125        0.314815        0.183767        0        
C4        C        0.84375        0.259259        0.183767        0        
C1        C        0.8125        0.351852        0.183767        0        
C2        C        0.84375        0.407408        0.183767        0        
C3        C        0.8125        0.42592500000000005        0.183767        0        
C4        C        0.84375        0.37037        0.183767        0        
C1        C        0.8125        0.46296300000000007        0.183767        0        
C2        C        0.84375        0.518519        0.183767        0        
C3        C        0.8125        0.537037        0.183767        0        
C4        C        0.84375        0.481481        0.183767        0        
C1        C        0.8125        0.574075        0.183767        0        
C2        C        0.84375        0.62963        0.183767        0        
C3        C        0.8125        0.648148        0.183767        0        
C4        C        0.84375        0.592592        0.183767        0        
C1        C        0.875        0.018519        0.183767        0        
C2        C        0.9062500000000001        0.074075        0.183767        0        
C3        C        0.875        0.092592        0.183767        0        
C4        C        0.9062500000000001        0.037037        0.183767        0        
C1        C        0.875        0.12963        0.183767        0        
C2        C        0.9062500000000001        0.185185        0.183767        0        
C3        C        0.875        0.203703        0.183767        0        
C4        C        0.9062500000000001        0.148148        0.183767        0        
C1        C        0.875        0.24074099999999998        0.183767        0        
C2        C        0.9062500000000001        0.296297        0.183767        0        
C3        C        0.875        0.314815        0.183767        0        
C4        C        0.9062500000000001        0.259259        0.183767        0        
C1        C        0.875        0.351852        0.183767        0        
C2        C        0.9062500000000001        0.407408        0.183767        0        
C3        C        0.875        0.42592500000000005        0.183767        0        
C4        C        0.9062500000000001        0.37037        0.183767        0        
C1        C        0.875        0.46296300000000007        0.183767        0        
C2        C        0.9062500000000001        0.518519        0.183767        0        
C3        C        0.875        0.537037        0.183767        0        
C4        C        0.9062500000000001        0.481481        0.183767        0        
C1        C        0.875        0.574075        0.183767        0        
C2        C        0.9062500000000001        0.62963        0.183767        0        
C3        C        0.875        0.648148        0.183767        0        
C4        C        0.9062500000000001        0.592592        0.183767        0        
C1        C        0.9375        0.018519        0.183767        0        
C2        C        0.9687500000000001        0.074075        0.183767        0        
C3        C        0.9375        0.092592        0.183767        0        
C4        C        0.9687500000000001        0.037037        0.183767        0        
C1        C        0.9375        0.12963        0.183767        0        
C2        C        0.9687500000000001        0.185185        0.183767        0        
C3        C        0.9375        0.203703        0.183767        0        
C4        C        0.9687500000000001        0.148148        0.183767        0        
C1        C        0.9375        0.24074099999999998        0.183767        0        
C2        C        0.9687500000000001        0.296297        0.183767        0        
C3        C        0.9375        0.314815        0.183767        0        
C4        C        0.9687500000000001        0.259259        0.183767        0        
C1        C        0.9375        0.351852        0.183767        0        
C2        C        0.9687500000000001        0.407408        0.183767        0        
C3        C        0.9375        0.42592500000000005        0.183767        0        
C4        C        0.9687500000000001        0.37037        0.183767        0        
C1        C        0.9375        0.46296300000000007        0.183767        0        
C2        C        0.9687500000000001        0.518519        0.183767        0        
C3        C        0.9375        0.537037        0.183767        0        
C4        C        0.9687500000000001        0.481481        0.183767        0        
C1        C        0.9375        0.574075        0.183767        0        
C2        C        0.9687500000000001        0.62963        0.183767        0        
C3        C        0.9375        0.648148        0.183767        0        
C4        C        0.9687500000000001        0.592592        0.183767        0        
C1        C        0.0        0.685186        0.183767        0        
C1        C        0.0625        0.685186        0.183767        0        
C1        C        0.125        0.685186        0.183767        0        
C1        C        0.1875        0.685186        0.183767        0        
C1        C        0.25        0.685186        0.183767        0        
C1        C        0.3125        0.685186        0.183767        0        
C1        C        0.375        0.685186        0.183767        0        
C1        C        0.4375        0.685186        0.183767        0        
C1        C        0.5        0.685186        0.183767        0        
C1        C        0.5625        0.685186        0.183767        0        
C1        C        0.625        0.685186        0.183767        0        
C1        C        0.6875        0.685186        0.183767        0        
C1        C        0.75        0.685186        0.183767        0        
C1        C        0.8125        0.685186        0.183767        0        
C1        C        0.875        0.685186        0.183767        0        
C1        C        0.9375        0.685186        0.183767        0        
C2        C        0.03125        0.740741        0.183767        0        
C2        C        0.09375        0.740741        0.183767        0        
C2        C        0.15625        0.740741        0.183767        0        
C2        C        0.21875        0.740741        0.183767        0        
C2        C        0.28125        0.740741        0.183767        0        
C2        C        0.34375        0.740741        0.183767        0        
C2        C        0.40625        0.740741        0.183767        0        
C2        C        0.46875        0.740741        0.183767        0        
C2        C        0.53125        0.740741        0.183767        0        
C2        C        0.59375        0.740741        0.183767        0        
C2        C        0.65625        0.740741        0.183767        0        
C2        C        0.71875        0.740741        0.183767        0        
C2        C        0.78125        0.740741        0.183767        0        
C2        C        0.84375        0.740741        0.183767        0        
C2        C        0.9062500000000001        0.740741        0.183767        0        
C2        C        0.9687500000000001        0.740741        0.183767        0        
C3        C        0.0        0.759259        0.183767        0        
C3        C        0.0625        0.759259        0.183767        0        
C3        C        0.125        0.759259        0.183767        0        
C3        C        0.1875        0.759259        0.183767        0        
C3        C        0.25        0.759259        0.183767        0        
C3        C        0.3125        0.759259        0.183767        0        
C3        C        0.375        0.759259        0.183767        0        
C3        C        0.4375        0.759259        0.183767        0        
C3        C        0.5        0.759259        0.183767        0        
C3        C        0.5625        0.759259        0.183767        0        
C3        C        0.625        0.759259        0.183767        0        
C3        C        0.6875        0.759259        0.183767        0        
C3        C        0.75        0.759259        0.183767        0        
C3        C        0.8125        0.759259        0.183767        0        
C3        C        0.875        0.759259        0.183767        0        
C3        C        0.9375        0.759259        0.183767        0        
C4        C        0.03125        0.703703        0.183767        0        
C4        C        0.09375        0.703703        0.183767        0        
C4        C        0.15625        0.703703        0.183767        0        
C4        C        0.21875        0.703703        0.183767        0        
C4        C        0.28125        0.703703        0.183767        0        
C4        C        0.34375        0.703703        0.183767        0        
C4        C        0.40625        0.703703        0.183767        0        
C4        C        0.46875        0.703703        0.183767        0        
C4        C        0.53125        0.703703        0.183767        0        
C4        C        0.59375        0.703703        0.183767        0        
C4        C        0.65625        0.703703        0.183767        0        
C4        C        0.71875        0.703703        0.183767        0        
C4        C        0.78125        0.703703        0.183767        0        
C4        C        0.84375        0.703703        0.183767        0        
C4        C        0.9062500000000001        0.703703        0.183767        0        
C4        C        0.9687500000000001        0.703703        0.183767        0        
C1        C        0.0        0.796297        0.183767        0        
C1        C        0.0625        0.796297        0.183767        0        
C1        C        0.125        0.796297        0.183767        0        
C1        C        0.1875        0.796297        0.183767        0        
C1        C        0.25        0.796297        0.183767        0        
C1        C        0.3125        0.796297        0.183767        0        
C1        C        0.375        0.796297        0.183767        0        
C1        C        0.4375        0.796297        0.183767        0        
C1        C        0.5        0.796297        0.183767        0        
C1        C        0.5625        0.796297        0.183767        0        
C1        C        0.625        0.796297        0.183767        0        
C1        C        0.6875        0.796297        0.183767        0        
C1        C        0.75        0.796297        0.183767        0        
C1        C        0.8125        0.796297        0.183767        0        
C1        C        0.875        0.796297        0.183767        0        
C1        C        0.9375        0.796297        0.183767        0        
C2        C        0.03125        0.851852        0.183767        0        
C2        C        0.09375        0.851852        0.183767        0        
C2        C        0.15625        0.851852        0.183767        0        
C2        C        0.21875        0.851852        0.183767        0        
C2        C        0.28125        0.851852        0.183767        0        
C2        C        0.34375        0.851852        0.183767        0        
C2        C        0.40625        0.851852        0.183767        0        
C2        C        0.46875        0.851852        0.183767        0        
C2        C        0.53125        0.851852        0.183767        0        
C2        C        0.59375        0.851852        0.183767        0        
C2        C        0.65625        0.851852        0.183767        0        
C2        C        0.71875        0.851852        0.183767        0        
C2        C        0.78125        0.851852        0.183767        0        
C2        C        0.84375        0.851852        0.183767        0        
C2        C        0.9062500000000001        0.851852        0.183767        0        
C2        C        0.9687500000000001        0.851852        0.183767        0        
C3        C        0.0        0.87037        0.183767        0        
C3        C        0.0625        0.87037        0.183767        0        
C3        C        0.125        0.87037        0.183767        0        
C3        C        0.1875        0.87037        0.183767        0        
C3        C        0.25        0.87037        0.183767        0        
C3        C        0.3125        0.87037        0.183767        0        
C3        C        0.375        0.87037        0.183767        0        
C3        C        0.4375        0.87037        0.183767        0        
C3        C        0.5        0.87037        0.183767        0        
C3        C        0.5625        0.87037        0.183767        0        
C3        C        0.625        0.87037        0.183767        0        
C3        C        0.6875        0.87037        0.183767        0        
C3        C        0.75        0.87037        0.183767        0        
C3        C        0.8125        0.87037        0.183767        0        
C3        C        0.875        0.87037        0.183767        0        
C3        C        0.9375        0.87037        0.183767        0        
C4        C        0.03125        0.814814        0.183767        0        
C4        C        0.09375        0.814814        0.183767        0        
C4        C        0.15625        0.814814        0.183767        0        
C4        C        0.21875        0.814814        0.183767        0        
C4        C        0.28125        0.814814        0.183767        0        
C4        C        0.34375        0.814814        0.183767        0        
C4        C        0.40625        0.814814        0.183767        0        
C4        C        0.46875        0.814814        0.183767        0        
C4        C        0.53125        0.814814        0.183767        0        
C4        C        0.59375        0.814814        0.183767        0        
C4        C        0.65625        0.814814        0.183767        0        
C4        C        0.71875        0.814814        0.183767        0        
C4        C        0.78125        0.814814        0.183767        0        
C4        C        0.84375        0.814814        0.183767        0        
C4        C        0.9062500000000001        0.814814        0.183767        0        
C4        C        0.9687500000000001        0.814814        0.183767        0        
C1        C        0.0        0.907408        0.183767        0        
C1        C        0.0625        0.907408        0.183767        0        
C1        C        0.125        0.907408        0.183767        0        
C1        C        0.1875        0.907408        0.183767        0        
C1        C        0.25        0.907408        0.183767        0        
C1        C        0.3125        0.907408        0.183767        0        
C1        C        0.375        0.907408        0.183767        0        
C1        C        0.4375        0.907408        0.183767        0        
C1        C        0.5        0.907408        0.183767        0        
C1        C        0.5625        0.907408        0.183767        0        
C1        C        0.625        0.907408        0.183767        0        
C1        C        0.6875        0.907408        0.183767        0        
C1        C        0.75        0.907408        0.183767        0        
C1        C        0.8125        0.907408        0.183767        0        
C1        C        0.875        0.907408        0.183767        0        
C1        C        0.9375        0.907408        0.183767        0        
C2        C        0.03125        0.962963        0.183767        0        
C2        C        0.09375        0.962963        0.183767        0        
C2        C        0.15625        0.962963        0.183767        0        
C2        C        0.21875        0.962963        0.183767        0        
C2        C        0.28125        0.962963        0.183767        0        
C2        C        0.34375        0.962963        0.183767        0        
C2        C        0.40625        0.962963        0.183767        0        
C2        C        0.46875        0.962963        0.183767        0        
C2        C        0.53125        0.962963        0.183767        0        
C2        C        0.59375        0.962963        0.183767        0        
C2        C        0.65625        0.962963        0.183767        0        
C2        C        0.71875        0.962963        0.183767        0        
C2        C        0.78125        0.962963        0.183767        0        
C2        C        0.84375        0.962963        0.183767        0        
C2        C        0.9062500000000001        0.962963        0.183767        0        
C2        C        0.9687500000000001        0.962963        0.183767        0        
C3        C        0.0        0.9814809999999999        0.183767        0        
C3        C        0.0625        0.9814809999999999        0.183767        0        
C3        C        0.125        0.9814809999999999        0.183767        0        
C3        C        0.1875        0.9814809999999999        0.183767        0        
C3        C        0.25        0.9814809999999999        0.183767        0        
C3        C        0.3125        0.9814809999999999        0.183767        0        
C3        C        0.375        0.9814809999999999        0.183767        0        
C3        C        0.4375        0.9814809999999999        0.183767        0        
C3        C        0.5        0.9814809999999999        0.183767        0        
C3        C        0.5625        0.9814809999999999        0.183767        0        
C3        C        0.625        0.9814809999999999        0.183767        0        
C3        C        0.6875        0.9814809999999999        0.183767        0        
C3        C        0.75        0.9814809999999999        0.183767        0        
C3        C        0.8125        0.9814809999999999        0.183767        0        
C3        C        0.875        0.9814809999999999        0.183767        0        
C3        C        0.9375        0.9814809999999999        0.183767        0        
C4        C        0.03125        0.925925        0.183767        0        
C4        C        0.09375        0.925925        0.183767        0        
C4        C        0.15625        0.925925        0.183767        0        
C4        C        0.21875        0.925925        0.183767        0        
C4        C        0.28125        0.925925        0.183767        0        
C4        C        0.34375        0.925925        0.183767        0        
C4        C        0.40625        0.925925        0.183767        0        
C4        C        0.46875        0.925925        0.183767        0        
C4        C        0.53125        0.925925        0.183767        0        
C4        C        0.59375        0.925925        0.183767        0        
C4        C        0.65625        0.925925        0.183767        0        
C4        C        0.71875        0.925925        0.183767        0        
C4        C        0.78125        0.925925        0.183767        0        
C4        C        0.84375        0.925925        0.183767        0        
C4        C        0.9062500000000001        0.925925        0.183767        0        
C4        C        0.9687500000000001        0.925925        0.183767        0        
C1        C        0.0        0.018519        0.235069        0        
C2        C        0.03125        0.074075        0.235069        0        
C3        C        0.0        0.092592        0.235069        0        
C4        C        0.03125        0.037037        0.235069        0        
C1        C        0.0        0.12963        0.235069        0        
C2        C        0.03125        0.185185        0.235069        0        
C3        C        0.0        0.203703        0.235069        0        
C4        C        0.03125        0.148148        0.235069        0        
C1        C        0.0        0.24074099999999998        0.235069        0        
C2        C        0.03125        0.296297        0.235069        0        
C3        C        0.0        0.314815        0.235069        0        
C4        C        0.03125        0.259259        0.235069        0        
C1        C        0.0        0.351852        0.235069        0        
C2        C        0.03125        0.407408        0.235069        0        
C3        C        0.0        0.42592500000000005        0.235069        0        
C4        C        0.03125        0.37037        0.235069        0        
C1        C        0.0        0.46296300000000007        0.235069        0        
C2        C        0.03125        0.518519        0.235069        0        
C3        C        0.0        0.537037        0.235069        0        
C4        C        0.03125        0.481481        0.235069        0        
C1        C        0.0        0.574075        0.235069        0        
C2        C        0.03125        0.62963        0.235069        0        
C3        C        0.0        0.648148        0.235069        0        
C4        C        0.03125        0.592592        0.235069        0        
C1        C        0.0625        0.018519        0.235069        0        
C2        C        0.09375        0.074075        0.235069        0        
C3        C        0.0625        0.092592        0.235069        0        
C4        C        0.09375        0.037037        0.235069        0        
C1        C        0.0625        0.12963        0.235069        0        
C2        C        0.09375        0.185185        0.235069        0        
C3        C        0.0625        0.203703        0.235069        0        
C4        C        0.09375        0.148148        0.235069        0        
C1        C        0.0625        0.24074099999999998        0.235069        0        
C2        C        0.09375        0.296297        0.235069        0        
C3        C        0.0625        0.314815        0.235069        0        
C4        C        0.09375        0.259259        0.235069        0        
C1        C        0.0625        0.351852        0.235069        0        
C2        C        0.09375        0.407408        0.235069        0        
C3        C        0.0625        0.42592500000000005        0.235069        0        
C4        C        0.09375        0.37037        0.235069        0        
C1        C        0.0625        0.46296300000000007        0.235069        0        
C2        C        0.09375        0.518519        0.235069        0        
C3        C        0.0625        0.537037        0.235069        0        
C4        C        0.09375        0.481481        0.235069        0        
C1        C        0.0625        0.574075        0.235069        0        
C2        C        0.09375        0.62963        0.235069        0        
C3        C        0.0625        0.648148        0.235069        0        
C4        C        0.09375        0.592592        0.235069        0        
C1        C        0.125        0.018519        0.235069        0        
C2        C        0.15625        0.074075        0.235069        0        
C3        C        0.125        0.092592        0.235069        0        
C4        C        0.15625        0.037037        0.235069        0        
C1        C        0.125        0.12963        0.235069        0        
C2        C        0.15625        0.185185        0.235069        0        
C3        C        0.125        0.203703        0.235069        0        
C4        C        0.15625        0.148148        0.235069        0        
C1        C        0.125        0.24074099999999998        0.235069        0        
C2        C        0.15625        0.296297        0.235069        0        
C3        C        0.125        0.314815        0.235069        0        
C4        C        0.15625        0.259259        0.235069        0        
C1        C        0.125        0.351852        0.235069        0        
C2        C        0.15625        0.407408        0.235069        0        
C3        C        0.125        0.42592500000000005        0.235069        0        
C4        C        0.15625        0.37037        0.235069        0        
C1        C        0.125        0.46296300000000007        0.235069        0        
C2        C        0.15625        0.518519        0.235069        0        
C3        C        0.125        0.537037        0.235069        0        
C4        C        0.15625        0.481481        0.235069        0        
C1        C        0.125        0.574075        0.235069        0        
C2        C        0.15625        0.62963        0.235069        0        
C3        C        0.125        0.648148        0.235069        0        
C4        C        0.15625        0.592592        0.235069        0        
C1        C        0.1875        0.018519        0.235069        0        
C2        C        0.21875        0.074075        0.235069        0        
C3        C        0.1875        0.092592        0.235069        0        
C4        C        0.21875        0.037037        0.235069        0        
C1        C        0.1875        0.12963        0.235069        0        
C2        C        0.21875        0.185185        0.235069        0        
C3        C        0.1875        0.203703        0.235069        0        
C4        C        0.21875        0.148148        0.235069        0        
C1        C        0.1875        0.24074099999999998        0.235069        0        
C2        C        0.21875        0.296297        0.235069        0        
C3        C        0.1875        0.314815        0.235069        0        
C4        C        0.21875        0.259259        0.235069        0        
C1        C        0.1875        0.351852        0.235069        0        
C2        C        0.21875        0.407408        0.235069        0        
C3        C        0.1875        0.42592500000000005        0.235069        0        
C4        C        0.21875        0.37037        0.235069        0        
C1        C        0.1875        0.46296300000000007        0.235069        0        
C2        C        0.21875        0.518519        0.235069        0        
C3        C        0.1875        0.537037        0.235069        0        
C4        C        0.21875        0.481481        0.235069        0        
C1        C        0.1875        0.574075        0.235069        0        
C2        C        0.21875        0.62963        0.235069        0        
C3        C        0.1875        0.648148        0.235069        0        
C4        C        0.21875        0.592592        0.235069        0        
C1        C        0.25        0.018519        0.235069        0        
C2        C        0.28125        0.074075        0.235069        0        
C3        C        0.25        0.092592        0.235069        0        
C4        C        0.28125        0.037037        0.235069        0        
C1        C        0.25        0.12963        0.235069        0        
C2        C        0.28125        0.185185        0.235069        0        
C3        C        0.25        0.203703        0.235069        0        
C4        C        0.28125        0.148148        0.235069        0        
C1        C        0.25        0.24074099999999998        0.235069        0        
C2        C        0.28125        0.296297        0.235069        0        
C3        C        0.25        0.314815        0.235069        0        
C4        C        0.28125        0.259259        0.235069        0        
C1        C        0.25        0.351852        0.235069        0        
C2        C        0.28125        0.407408        0.235069        0        
C3        C        0.25        0.42592500000000005        0.235069        0        
C4        C        0.28125        0.37037        0.235069        0        
C1        C        0.25        0.46296300000000007        0.235069        0        
C2        C        0.28125        0.518519        0.235069        0        
C3        C        0.25        0.537037        0.235069        0        
C4        C        0.28125        0.481481        0.235069        0        
C1        C        0.25        0.574075        0.235069        0        
C2        C        0.28125        0.62963        0.235069        0        
C3        C        0.25        0.648148        0.235069        0        
C4        C        0.28125        0.592592        0.235069        0        
C1        C        0.3125        0.018519        0.235069        0        
C2        C        0.34375        0.074075        0.235069        0        
C3        C        0.3125        0.092592        0.235069        0        
C4        C        0.34375        0.037037        0.235069        0        
C1        C        0.3125        0.12963        0.235069        0        
C2        C        0.34375        0.185185        0.235069        0        
C3        C        0.3125        0.203703        0.235069        0        
C4        C        0.34375        0.148148        0.235069        0        
C1        C        0.3125        0.24074099999999998        0.235069        0        
C2        C        0.34375        0.296297        0.235069        0        
C3        C        0.3125        0.314815        0.235069        0        
C4        C        0.34375        0.259259        0.235069        0        
C1        C        0.3125        0.351852        0.235069        0        
C2        C        0.34375        0.407408        0.235069        0        
C3        C        0.3125        0.42592500000000005        0.235069        0        
C4        C        0.34375        0.37037        0.235069        0        
C1        C        0.3125        0.46296300000000007        0.235069        0        
C2        C        0.34375        0.518519        0.235069        0        
C3        C        0.3125        0.537037        0.235069        0        
C4        C        0.34375        0.481481        0.235069        0        
C1        C        0.3125        0.574075        0.235069        0        
C2        C        0.34375        0.62963        0.235069        0        
C3        C        0.3125        0.648148        0.235069        0        
C4        C        0.34375        0.592592        0.235069        0        
C1        C        0.375        0.018519        0.235069        0        
C2        C        0.40625        0.074075        0.235069        0        
C3        C        0.375        0.092592        0.235069        0        
C4        C        0.40625        0.037037        0.235069        0        
C1        C        0.375        0.12963        0.235069        0        
C2        C        0.40625        0.185185        0.235069        0        
C3        C        0.375        0.203703        0.235069        0        
C4        C        0.40625        0.148148        0.235069        0        
C1        C        0.375        0.24074099999999998        0.235069        0        
C2        C        0.40625        0.296297        0.235069        0        
C3        C        0.375        0.314815        0.235069        0        
C4        C        0.40625        0.259259        0.235069        0        
C1        C        0.375        0.351852        0.235069        0        
C2        C        0.40625        0.407408        0.235069        0        
C3        C        0.375        0.42592500000000005        0.235069        0        
C4        C        0.40625        0.37037        0.235069        0        
C1        C        0.375        0.46296300000000007        0.235069        0        
C2        C        0.40625        0.518519        0.235069        0        
C3        C        0.375        0.537037        0.235069        0        
C4        C        0.40625        0.481481        0.235069        0        
C1        C        0.375        0.574075        0.235069        0        
C2        C        0.40625        0.62963        0.235069        0        
C3        C        0.375        0.648148        0.235069        0        
C4        C        0.40625        0.592592        0.235069        0        
C1        C        0.4375        0.018519        0.235069        0        
C2        C        0.46875        0.074075        0.235069        0        
C3        C        0.4375        0.092592        0.235069        0        
C4        C        0.46875        0.037037        0.235069        0        
C1        C        0.4375        0.12963        0.235069        0        
C2        C        0.46875        0.185185        0.235069        0        
C3        C        0.4375        0.203703        0.235069        0        
C4        C        0.46875        0.148148        0.235069        0        
C1        C        0.4375        0.24074099999999998        0.235069        0        
C2        C        0.46875        0.296297        0.235069        0        
C3        C        0.4375        0.314815        0.235069        0        
C4        C        0.46875        0.259259        0.235069        0        
C1        C        0.4375        0.351852        0.235069        0        
C2        C        0.46875        0.407408        0.235069        0        
C3        C        0.4375        0.42592500000000005        0.235069        0        
C4        C        0.46875        0.37037        0.235069        0        
C1        C        0.4375        0.46296300000000007        0.235069        0        
C2        C        0.46875        0.518519        0.235069        0        
C3        C        0.4375        0.537037        0.235069        0        
C4        C        0.46875        0.481481        0.235069        0        
C1        C        0.4375        0.574075        0.235069        0        
C2        C        0.46875        0.62963        0.235069        0        
C3        C        0.4375        0.648148        0.235069        0        
C4        C        0.46875        0.592592        0.235069        0        
C1        C        0.5        0.018519        0.235069        0        
C2        C        0.53125        0.074075        0.235069        0        
C3        C        0.5        0.092592        0.235069        0        
C4        C        0.53125        0.037037        0.235069        0        
C1        C        0.5        0.12963        0.235069        0        
C2        C        0.53125        0.185185        0.235069        0        
C3        C        0.5        0.203703        0.235069        0        
C4        C        0.53125        0.148148        0.235069        0        
C1        C        0.5        0.24074099999999998        0.235069        0        
C2        C        0.53125        0.296297        0.235069        0        
C3        C        0.5        0.314815        0.235069        0        
C4        C        0.53125        0.259259        0.235069        0        
C1        C        0.5        0.351852        0.235069        0        
C2        C        0.53125        0.407408        0.235069        0        
C3        C        0.5        0.42592500000000005        0.235069        0        
C4        C        0.53125        0.37037        0.235069        0        
C1        C        0.5        0.46296300000000007        0.235069        0        
C2        C        0.53125        0.518519        0.235069        0        
C3        C        0.5        0.537037        0.235069        0        
C4        C        0.53125        0.481481        0.235069        0        
C1        C        0.5        0.574075        0.235069        0        
C2        C        0.53125        0.62963        0.235069        0        
C3        C        0.5        0.648148        0.235069        0        
C4        C        0.53125        0.592592        0.235069        0        
C1        C        0.5625        0.018519        0.235069        0        
C2        C        0.59375        0.074075        0.235069        0        
C3        C        0.5625        0.092592        0.235069        0        
C4        C        0.59375        0.037037        0.235069        0        
C1        C        0.5625        0.12963        0.235069        0        
C2        C        0.59375        0.185185        0.235069        0        
C3        C        0.5625        0.203703        0.235069        0        
C4        C        0.59375        0.148148        0.235069        0        
C1        C        0.5625        0.24074099999999998        0.235069        0        
C2        C        0.59375        0.296297        0.235069        0        
C3        C        0.5625        0.314815        0.235069        0        
C4        C        0.59375        0.259259        0.235069        0        
C1        C        0.5625        0.351852        0.235069        0        
C2        C        0.59375        0.407408        0.235069        0        
C3        C        0.5625        0.42592500000000005        0.235069        0        
C4        C        0.59375        0.37037        0.235069        0        
C1        C        0.5625        0.46296300000000007        0.235069        0        
C2        C        0.59375        0.518519        0.235069        0        
C3        C        0.5625        0.537037        0.235069        0        
C4        C        0.59375        0.481481        0.235069        0        
C1        C        0.5625        0.574075        0.235069        0        
C2        C        0.59375        0.62963        0.235069        0        
C3        C        0.5625        0.648148        0.235069        0        
C4        C        0.59375        0.592592        0.235069        0        
C1        C        0.625        0.018519        0.235069        0        
C2        C        0.65625        0.074075        0.235069        0        
C3        C        0.625        0.092592        0.235069        0        
C4        C        0.65625        0.037037        0.235069        0        
C1        C        0.625        0.12963        0.235069        0        
C2        C        0.65625        0.185185        0.235069        0        
C3        C        0.625        0.203703        0.235069        0        
C4        C        0.65625        0.148148        0.235069        0        
C1        C        0.625        0.24074099999999998        0.235069        0        
C2        C        0.65625        0.296297        0.235069        0        
C3        C        0.625        0.314815        0.235069        0        
C4        C        0.65625        0.259259        0.235069        0        
C1        C        0.625        0.351852        0.235069        0        
C2        C        0.65625        0.407408        0.235069        0        
C3        C        0.625        0.42592500000000005        0.235069        0        
C4        C        0.65625        0.37037        0.235069        0        
C1        C        0.625        0.46296300000000007        0.235069        0        
C2        C        0.65625        0.518519        0.235069        0        
C3        C        0.625        0.537037        0.235069        0        
C4        C        0.65625        0.481481        0.235069        0        
C1        C        0.625        0.574075        0.235069        0        
C2        C        0.65625        0.62963        0.235069        0        
C3        C        0.625        0.648148        0.235069        0        
C4        C        0.65625        0.592592        0.235069        0        
C1        C        0.6875        0.018519        0.235069        0        
C2        C        0.71875        0.074075        0.235069        0        
C3        C        0.6875        0.092592        0.235069        0        
C4        C        0.71875        0.037037        0.235069        0        
C1        C        0.6875        0.12963        0.235069        0        
C2        C        0.71875        0.185185        0.235069        0        
C3        C        0.6875        0.203703        0.235069        0        
C4        C        0.71875        0.148148        0.235069        0        
C1        C        0.6875        0.24074099999999998        0.235069        0        
C2        C        0.71875        0.296297        0.235069        0        
C3        C        0.6875        0.314815        0.235069        0        
C4        C        0.71875        0.259259        0.235069        0        
C1        C        0.6875        0.351852        0.235069        0        
C2        C        0.71875        0.407408        0.235069        0        
C3        C        0.6875        0.42592500000000005        0.235069        0        
C4        C        0.71875        0.37037        0.235069        0        
C1        C        0.6875        0.46296300000000007        0.235069        0        
C2        C        0.71875        0.518519        0.235069        0        
C3        C        0.6875        0.537037        0.235069        0        
C4        C        0.71875        0.481481        0.235069        0        
C1        C        0.6875        0.574075        0.235069        0        
C2        C        0.71875        0.62963        0.235069        0        
C3        C        0.6875        0.648148        0.235069        0        
C4        C        0.71875        0.592592        0.235069        0        
C1        C        0.75        0.018519        0.235069        0        
C2        C        0.78125        0.074075        0.235069        0        
C3        C        0.75        0.092592        0.235069        0        
C4        C        0.78125        0.037037        0.235069        0        
C1        C        0.75        0.12963        0.235069        0        
C2        C        0.78125        0.185185        0.235069        0        
C3        C        0.75        0.203703        0.235069        0        
C4        C        0.78125        0.148148        0.235069        0        
C1        C        0.75        0.24074099999999998        0.235069        0        
C2        C        0.78125        0.296297        0.235069        0        
C3        C        0.75        0.314815        0.235069        0        
C4        C        0.78125        0.259259        0.235069        0        
C1        C        0.75        0.351852        0.235069        0        
C2        C        0.78125        0.407408        0.235069        0        
C3        C        0.75        0.42592500000000005        0.235069        0        
C4        C        0.78125        0.37037        0.235069        0        
C1        C        0.75        0.46296300000000007        0.235069        0        
C2        C        0.78125        0.518519        0.235069        0        
C3        C        0.75        0.537037        0.235069        0        
C4        C        0.78125        0.481481        0.235069        0        
C1        C        0.75        0.574075        0.235069        0        
C2        C        0.78125        0.62963        0.235069        0        
C3        C        0.75        0.648148        0.235069        0        
C4        C        0.78125        0.592592        0.235069        0        
C1        C        0.8125        0.018519        0.235069        0        
C2        C        0.84375        0.074075        0.235069        0        
C3        C        0.8125        0.092592        0.235069        0        
C4        C        0.84375        0.037037        0.235069        0        
C1        C        0.8125        0.12963        0.235069        0        
C2        C        0.84375        0.185185        0.235069        0        
C3        C        0.8125        0.203703        0.235069        0        
C4        C        0.84375        0.148148        0.235069        0        
C1        C        0.8125        0.24074099999999998        0.235069        0        
C2        C        0.84375        0.296297        0.235069        0        
C3        C        0.8125        0.314815        0.235069        0        
C4        C        0.84375        0.259259        0.235069        0        
C1        C        0.8125        0.351852        0.235069        0        
C2        C        0.84375        0.407408        0.235069        0        
C3        C        0.8125        0.42592500000000005        0.235069        0        
C4        C        0.84375        0.37037        0.235069        0        
C1        C        0.8125        0.46296300000000007        0.235069        0        
C2        C        0.84375        0.518519        0.235069        0        
C3        C        0.8125        0.537037        0.235069        0        
C4        C        0.84375        0.481481        0.235069        0        
C1        C        0.8125        0.574075        0.235069        0        
C2        C        0.84375        0.62963        0.235069        0        
C3        C        0.8125        0.648148        0.235069        0        
C4        C        0.84375        0.592592        0.235069        0        
C1        C        0.875        0.018519        0.235069        0        
C2        C        0.9062500000000001        0.074075        0.235069        0        
C3        C        0.875        0.092592        0.235069        0        
C4        C        0.9062500000000001        0.037037        0.235069        0        
C1        C        0.875        0.12963        0.235069        0        
C2        C        0.9062500000000001        0.185185        0.235069        0        
C3        C        0.875        0.203703        0.235069        0        
C4        C        0.9062500000000001        0.148148        0.235069        0        
C1        C        0.875        0.24074099999999998        0.235069        0        
C2        C        0.9062500000000001        0.296297        0.235069        0        
C3        C        0.875        0.314815        0.235069        0        
C4        C        0.9062500000000001        0.259259        0.235069        0        
C1        C        0.875        0.351852        0.235069        0        
C2        C        0.9062500000000001        0.407408        0.235069        0        
C3        C        0.875        0.42592500000000005        0.235069        0        
C4        C        0.9062500000000001        0.37037        0.235069        0        
C1        C        0.875        0.46296300000000007        0.235069        0        
C2        C        0.9062500000000001        0.518519        0.235069        0        
C3        C        0.875        0.537037        0.235069        0        
C4        C        0.9062500000000001        0.481481        0.235069        0        
C1        C        0.875        0.574075        0.235069        0        
C2        C        0.9062500000000001        0.62963        0.235069        0        
C3        C        0.875        0.648148        0.235069        0        
C4        C        0.9062500000000001        0.592592        0.235069        0        
C1        C        0.9375        0.018519        0.235069        0        
C2        C        0.9687500000000001        0.074075        0.235069        0        
C3        C        0.9375        0.092592        0.235069        0        
C4        C        0.9687500000000001        0.037037        0.235069        0        
C1        C        0.9375        0.12963        0.235069        0        
C2        C        0.9687500000000001        0.185185        0.235069        0        
C3        C        0.9375        0.203703        0.235069        0        
C4        C        0.9687500000000001        0.148148        0.235069        0        
C1        C        0.9375        0.24074099999999998        0.235069        0        
C2        C        0.9687500000000001        0.296297        0.235069        0        
C3        C        0.9375        0.314815        0.235069        0        
C4        C        0.9687500000000001        0.259259        0.235069        0        
C1        C        0.9375        0.351852        0.235069        0        
C2        C        0.9687500000000001        0.407408        0.235069        0        
C3        C        0.9375        0.42592500000000005        0.235069        0        
C4        C        0.9687500000000001        0.37037        0.235069        0        
C1        C        0.9375        0.46296300000000007        0.235069        0        
C2        C        0.9687500000000001        0.518519        0.235069        0        
C3        C        0.9375        0.537037        0.235069        0        
C4        C        0.9687500000000001        0.481481        0.235069        0        
C1        C        0.9375        0.574075        0.235069        0        
C2        C        0.9687500000000001        0.62963        0.235069        0        
C3        C        0.9375        0.648148        0.235069        0        
C4        C        0.9687500000000001        0.592592        0.235069        0        
C1        C        0.0        0.685186        0.235069        0        
C1        C        0.0625        0.685186        0.235069        0        
C1        C        0.125        0.685186        0.235069        0        
C1        C        0.1875        0.685186        0.235069        0        
C1        C        0.25        0.685186        0.235069        0        
C1        C        0.3125        0.685186        0.235069        0        
C1        C        0.375        0.685186        0.235069        0        
C1        C        0.4375        0.685186        0.235069        0        
C1        C        0.5        0.685186        0.235069        0        
C1        C        0.5625        0.685186        0.235069        0        
C1        C        0.625        0.685186        0.235069        0        
C1        C        0.6875        0.685186        0.235069        0        
C1        C        0.75        0.685186        0.235069        0        
C1        C        0.8125        0.685186        0.235069        0        
C1        C        0.875        0.685186        0.235069        0        
C1        C        0.9375        0.685186        0.235069        0        
C2        C        0.03125        0.740741        0.235069        0        
C2        C        0.09375        0.740741        0.235069        0        
C2        C        0.15625        0.740741        0.235069        0        
C2        C        0.21875        0.740741        0.235069        0        
C2        C        0.28125        0.740741        0.235069        0        
C2        C        0.34375        0.740741        0.235069        0        
C2        C        0.40625        0.740741        0.235069        0        
C2        C        0.46875        0.740741        0.235069        0        
C2        C        0.53125        0.740741        0.235069        0        
C2        C        0.59375        0.740741        0.235069        0        
C2        C        0.65625        0.740741        0.235069        0        
C2        C        0.71875        0.740741        0.235069        0        
C2        C        0.78125        0.740741        0.235069        0        
C2        C        0.84375        0.740741        0.235069        0        
C2        C        0.9062500000000001        0.740741        0.235069        0        
C2        C        0.9687500000000001        0.740741        0.235069        0        
C3        C        0.0        0.759259        0.235069        0        
C3        C        0.0625        0.759259        0.235069        0        
C3        C        0.125        0.759259        0.235069        0        
C3        C        0.1875        0.759259        0.235069        0        
C3        C        0.25        0.759259        0.235069        0        
C3        C        0.3125        0.759259        0.235069        0        
C3        C        0.375        0.759259        0.235069        0        
C3        C        0.4375        0.759259        0.235069        0        
C3        C        0.5        0.759259        0.235069        0        
C3        C        0.5625        0.759259        0.235069        0        
C3        C        0.625        0.759259        0.235069        0        
C3        C        0.6875        0.759259        0.235069        0        
C3        C        0.75        0.759259        0.235069        0        
C3        C        0.8125        0.759259        0.235069        0        
C3        C        0.875        0.759259        0.235069        0        
C3        C        0.9375        0.759259        0.235069        0        
C4        C        0.03125        0.703703        0.235069        0        
C4        C        0.09375        0.703703        0.235069        0        
C4        C        0.15625        0.703703        0.235069        0        
C4        C        0.21875        0.703703        0.235069        0        
C4        C        0.28125        0.703703        0.235069        0        
C4        C        0.34375        0.703703        0.235069        0        
C4        C        0.40625        0.703703        0.235069        0        
C4        C        0.46875        0.703703        0.235069        0        
C4        C        0.53125        0.703703        0.235069        0        
C4        C        0.59375        0.703703        0.235069        0        
C4        C        0.65625        0.703703        0.235069        0        
C4        C        0.71875        0.703703        0.235069        0        
C4        C        0.78125        0.703703        0.235069        0        
C4        C        0.84375        0.703703        0.235069        0        
C4        C        0.9062500000000001        0.703703        0.235069        0        
C4        C        0.9687500000000001        0.703703        0.235069        0        
C1        C        0.0        0.796297        0.235069        0        
C1        C        0.0625        0.796297        0.235069        0        
C1        C        0.125        0.796297        0.235069        0        
C1        C        0.1875        0.796297        0.235069        0        
C1        C        0.25        0.796297        0.235069        0        
C1        C        0.3125        0.796297        0.235069        0        
C1        C        0.375        0.796297        0.235069        0        
C1        C        0.4375        0.796297        0.235069        0        
C1        C        0.5        0.796297        0.235069        0        
C1        C        0.5625        0.796297        0.235069        0        
C1        C        0.625        0.796297        0.235069        0        
C1        C        0.6875        0.796297        0.235069        0        
C1        C        0.75        0.796297        0.235069        0        
C1        C        0.8125        0.796297        0.235069        0        
C1        C        0.875        0.796297        0.235069        0        
C1        C        0.9375        0.796297        0.235069        0        
C2        C        0.03125        0.851852        0.235069        0        
C2        C        0.09375        0.851852        0.235069        0        
C2        C        0.15625        0.851852        0.235069        0        
C2        C        0.21875        0.851852        0.235069        0        
C2        C        0.28125        0.851852        0.235069        0        
C2        C        0.34375        0.851852        0.235069        0        
C2        C        0.40625        0.851852        0.235069        0        
C2        C        0.46875        0.851852        0.235069        0        
C2        C        0.53125        0.851852        0.235069        0        
C2        C        0.59375        0.851852        0.235069        0        
C2        C        0.65625        0.851852        0.235069        0        
C2        C        0.71875        0.851852        0.235069        0        
C2        C        0.78125        0.851852        0.235069        0        
C2        C        0.84375        0.851852        0.235069        0        
C2        C        0.9062500000000001        0.851852        0.235069        0        
C2        C        0.9687500000000001        0.851852        0.235069        0        
C3        C        0.0        0.87037        0.235069        0        
C3        C        0.0625        0.87037        0.235069        0        
C3        C        0.125        0.87037        0.235069        0        
C3        C        0.1875        0.87037        0.235069        0        
C3        C        0.25        0.87037        0.235069        0        
C3        C        0.3125        0.87037        0.235069        0        
C3        C        0.375        0.87037        0.235069        0        
C3        C        0.4375        0.87037        0.235069        0        
C3        C        0.5        0.87037        0.235069        0        
C3        C        0.5625        0.87037        0.235069        0        
C3        C        0.625        0.87037        0.235069        0        
C3        C        0.6875        0.87037        0.235069        0        
C3        C        0.75        0.87037        0.235069        0        
C3        C        0.8125        0.87037        0.235069        0        
C3        C        0.875        0.87037        0.235069        0        
C3        C        0.9375        0.87037        0.235069        0        
C4        C        0.03125        0.814814        0.235069        0        
C4        C        0.09375        0.814814        0.235069        0        
C4        C        0.15625        0.814814        0.235069        0        
C4        C        0.21875        0.814814        0.235069        0        
C4        C        0.28125        0.814814        0.235069        0        
C4        C        0.34375        0.814814        0.235069        0        
C4        C        0.40625        0.814814        0.235069        0        
C4        C        0.46875        0.814814        0.235069        0        
C4        C        0.53125        0.814814        0.235069        0        
C4        C        0.59375        0.814814        0.235069        0        
C4        C        0.65625        0.814814        0.235069        0        
C4        C        0.71875        0.814814        0.235069        0        
C4        C        0.78125        0.814814        0.235069        0        
C4        C        0.84375        0.814814        0.235069        0        
C4        C        0.9062500000000001        0.814814        0.235069        0        
C4        C        0.9687500000000001        0.814814        0.235069        0        
C1        C        0.0        0.907408        0.235069        0        
C1        C        0.0625        0.907408        0.235069        0        
C1        C        0.125        0.907408        0.235069        0        
C1        C        0.1875        0.907408        0.235069        0        
C1        C        0.25        0.907408        0.235069        0        
C1        C        0.3125        0.907408        0.235069        0        
C1        C        0.375        0.907408        0.235069        0        
C1        C        0.4375        0.907408        0.235069        0        
C1        C        0.5        0.907408        0.235069        0        
C1        C        0.5625        0.907408        0.235069        0        
C1        C        0.625        0.907408        0.235069        0        
C1        C        0.6875        0.907408        0.235069        0        
C1        C        0.75        0.907408        0.235069        0        
C1        C        0.8125        0.907408        0.235069        0        
C1        C        0.875        0.907408        0.235069        0        
C1        C        0.9375        0.907408        0.235069        0        
C2        C        0.03125        0.962963        0.235069        0        
C2        C        0.09375        0.962963        0.235069        0        
C2        C        0.15625        0.962963        0.235069        0        
C2        C        0.21875        0.962963        0.235069        0        
C2        C        0.28125        0.962963        0.235069        0        
C2        C        0.34375        0.962963        0.235069        0        
C2        C        0.40625        0.962963        0.235069        0        
C2        C        0.46875        0.962963        0.235069        0        
C2        C        0.53125        0.962963        0.235069        0        
C2        C        0.59375        0.962963        0.235069        0        
C2        C        0.65625        0.962963        0.235069        0        
C2        C        0.71875        0.962963        0.235069        0        
C2        C        0.78125        0.962963        0.235069        0        
C2        C        0.84375        0.962963        0.235069        0        
C2        C        0.9062500000000001        0.962963        0.235069        0        
C2        C        0.9687500000000001        0.962963        0.235069        0        
C3        C        0.0        0.9814809999999999        0.235069        0        
C3        C        0.0625        0.9814809999999999        0.235069        0        
C3        C        0.125        0.9814809999999999        0.235069        0        
C3        C        0.1875        0.9814809999999999        0.235069        0        
C3        C        0.25        0.9814809999999999        0.235069        0        
C3        C        0.3125        0.9814809999999999        0.235069        0        
C3        C        0.375        0.9814809999999999        0.235069        0        
C3        C        0.4375        0.9814809999999999        0.235069        0        
C3        C        0.5        0.9814809999999999        0.235069        0        
C3        C        0.5625        0.9814809999999999        0.235069        0        
C3        C        0.625        0.9814809999999999        0.235069        0        
C3        C        0.6875        0.9814809999999999        0.235069        0        
C3        C        0.75        0.9814809999999999        0.235069        0        
C3        C        0.8125        0.9814809999999999        0.235069        0        
C3        C        0.875        0.9814809999999999        0.235069        0        
C3        C        0.9375        0.9814809999999999        0.235069        0        
C4        C        0.03125        0.925925        0.235069        0        
C4        C        0.09375        0.925925        0.235069        0        
C4        C        0.15625        0.925925        0.235069        0        
C4        C        0.21875        0.925925        0.235069        0        
C4        C        0.28125        0.925925        0.235069        0        
C4        C        0.34375        0.925925        0.235069        0        
C4        C        0.40625        0.925925        0.235069        0        
C4        C        0.46875        0.925925        0.235069        0        
C4        C        0.53125        0.925925        0.235069        0        
C4        C        0.59375        0.925925        0.235069        0        
C4        C        0.65625        0.925925        0.235069        0        
C4        C        0.71875        0.925925        0.235069        0        
C4        C        0.78125        0.925925        0.235069        0        
C4        C        0.84375        0.925925        0.235069        0        
C4        C        0.9062500000000001        0.925925        0.235069        0        
C4        C        0.9687500000000001        0.925925        0.235069        0        
C_FG        C        0.0        0.018519        0.286371        0.08        
C2        C        0.03125        0.074075        0.286371        0        
C3        C        0.0        0.092592        0.286371        0        
C4        C        0.03125        0.037037        0.286371        0        
C1        C        0.0        0.12963        0.286371        0        
C2        C        0.03125        0.185185        0.286371        0        
C_FG        C        0.0        0.203703        0.286371        0.08        
C4        C        0.03125        0.148148        0.286371        0        
C1        C        0.0        0.24074099999999998        0.286371        0        
C2        C        0.03125        0.296297        0.286371        0        
C3        C        0.0        0.314815        0.286371        0        
C4        C        0.03125        0.259259        0.286371        0        
C_FG        C        0.0        0.351852        0.286371        0.08        
C2        C        0.03125        0.407408        0.286371        0        
C3        C        0.0        0.42592500000000005        0.286371        0        
C4        C        0.03125        0.37037        0.286371        0        
C1        C        0.0        0.46296300000000007        0.286371        0        
C2        C        0.03125        0.518519        0.286371        0        
C_FG        C        0.0        0.537037        0.286371        0.08        
C4        C        0.03125        0.481481        0.286371        0        
C1        C        0.0        0.574075        0.286371        0        
C2        C        0.03125        0.62963        0.286371        0        
C3        C        0.0        0.648148        0.286371        0        
C4        C        0.03125        0.592592        0.286371        0        
C1        C        0.0625        0.018519        0.286371        0        
C2        C        0.09375        0.074075        0.286371        0        
C3        C        0.0625        0.092592        0.286371        0        
C4        C        0.09375        0.037037        0.286371        0        
C1        C        0.0625        0.12963        0.286371        0        
C2        C        0.09375        0.185185        0.286371        0        
C3        C        0.0625        0.203703        0.286371        0        
C4        C        0.09375        0.148148        0.286371        0        
C1        C        0.0625        0.24074099999999998        0.286371        0        
C2        C        0.09375        0.296297        0.286371        0        
C3        C        0.0625        0.314815        0.286371        0        
C4        C        0.09375        0.259259        0.286371        0        
C1        C        0.0625        0.351852        0.286371        0        
C2        C        0.09375        0.407408        0.286371        0        
C3        C        0.0625        0.42592500000000005        0.286371        0        
C4        C        0.09375        0.37037        0.286371        0        
C1        C        0.0625        0.46296300000000007        0.286371        0        
C2        C        0.09375        0.518519        0.286371        0        
C3        C        0.0625        0.537037        0.286371        0        
C4        C        0.09375        0.481481        0.286371        0        
C1        C        0.0625        0.574075        0.286371        0        
C2        C        0.09375        0.62963        0.286371        0        
C3        C        0.0625        0.648148        0.286371        0        
C4        C        0.09375        0.592592        0.286371        0        
C1        C        0.125        0.018519        0.286371        0        
C2        C        0.15625        0.074075        0.286371        0        
C3        C        0.125        0.092592        0.286371        0        
C4        C        0.15625        0.037037        0.286371        0        
C1        C        0.125        0.12963        0.286371        0        
C2        C        0.15625        0.185185        0.286371        0        
C3        C        0.125        0.203703        0.286371        0        
C4        C        0.15625        0.148148        0.286371        0        
C1        C        0.125        0.24074099999999998        0.286371        0        
C2        C        0.15625        0.296297        0.286371        0        
C3        C        0.125        0.314815        0.286371        0        
C4        C        0.15625        0.259259        0.286371        0        
C1        C        0.125        0.351852        0.286371        0        
C2        C        0.15625        0.407408        0.286371        0        
C3        C        0.125        0.42592500000000005        0.286371        0        
C4        C        0.15625        0.37037        0.286371        0        
C1        C        0.125        0.46296300000000007        0.286371        0        
C2        C        0.15625        0.518519        0.286371        0        
C3        C        0.125        0.537037        0.286371        0        
C4        C        0.15625        0.481481        0.286371        0        
C1        C        0.125        0.574075        0.286371        0        
C2        C        0.15625        0.62963        0.286371        0        
C3        C        0.125        0.648148        0.286371        0        
C4        C        0.15625        0.592592        0.286371        0        
C1        C        0.1875        0.018519        0.286371        0        
C2        C        0.21875        0.074075        0.286371        0        
C3        C        0.1875        0.092592        0.286371        0        
C4        C        0.21875        0.037037        0.286371        0        
C1        C        0.1875        0.12963        0.286371        0        
C2        C        0.21875        0.185185        0.286371        0        
C3        C        0.1875        0.203703        0.286371        0        
C4        C        0.21875        0.148148        0.286371        0        
C1        C        0.1875        0.24074099999999998        0.286371        0        
C2        C        0.21875        0.296297        0.286371        0        
C3        C        0.1875        0.314815        0.286371        0        
C4        C        0.21875        0.259259        0.286371        0        
C1        C        0.1875        0.351852        0.286371        0        
C2        C        0.21875        0.407408        0.286371        0        
C3        C        0.1875        0.42592500000000005        0.286371        0        
C4        C        0.21875        0.37037        0.286371        0        
C1        C        0.1875        0.46296300000000007        0.286371        0        
C2        C        0.21875        0.518519        0.286371        0        
C3        C        0.1875        0.537037        0.286371        0        
C4        C        0.21875        0.481481        0.286371        0        
C1        C        0.1875        0.574075        0.286371        0        
C2        C        0.21875        0.62963        0.286371        0        
C3        C        0.1875        0.648148        0.286371        0        
C4        C        0.21875        0.592592        0.286371        0        
C_FG        C        0.25        0.018519        0.286371        0.08        
C2        C        0.28125        0.074075        0.286371        0        
C3        C        0.25        0.092592        0.286371        0        
C4        C        0.28125        0.037037        0.286371        0        
C1        C        0.25        0.12963        0.286371        0        
C2        C        0.28125        0.185185        0.286371        0        
C_FG        C        0.25        0.203703        0.286371        0.08        
C4        C        0.28125        0.148148        0.286371        0        
C1        C        0.25        0.24074099999999998        0.286371        0        
C2        C        0.28125        0.296297        0.286371        0        
C3        C        0.25        0.314815        0.286371        0        
C4        C        0.28125        0.259259        0.286371        0        
C_FG        C        0.25        0.351852        0.286371        0.08        
C2        C        0.28125        0.407408        0.286371        0        
C3        C        0.25        0.42592500000000005        0.286371        0        
C4        C        0.28125        0.37037        0.286371        0        
C1        C        0.25        0.46296300000000007        0.286371        0        
C2        C        0.28125        0.518519        0.286371        0        
C_FG        C        0.25        0.537037        0.286371        0.08        
C4        C        0.28125        0.481481        0.286371        0        
C1        C        0.25        0.574075        0.286371        0        
C2        C        0.28125        0.62963        0.286371        0        
C3        C        0.25        0.648148        0.286371        0        
C4        C        0.28125        0.592592        0.286371        0        
C1        C        0.3125        0.018519        0.286371        0        
C2        C        0.34375        0.074075        0.286371        0        
C3        C        0.3125        0.092592        0.286371        0        
C4        C        0.34375        0.037037        0.286371        0        
C1        C        0.3125        0.12963        0.286371        0        
C2        C        0.34375        0.185185        0.286371        0        
C3        C        0.3125        0.203703        0.286371        0        
C4        C        0.34375        0.148148        0.286371        0        
C1        C        0.3125        0.24074099999999998        0.286371        0        
C2        C        0.34375        0.296297        0.286371        0        
C3        C        0.3125        0.314815        0.286371        0        
C4        C        0.34375        0.259259        0.286371        0        
C1        C        0.3125        0.351852        0.286371        0        
C2        C        0.34375        0.407408        0.286371        0        
C3        C        0.3125        0.42592500000000005        0.286371        0        
C4        C        0.34375        0.37037        0.286371        0        
C1        C        0.3125        0.46296300000000007        0.286371        0        
C2        C        0.34375        0.518519        0.286371        0        
C3        C        0.3125        0.537037        0.286371        0        
C4        C        0.34375        0.481481        0.286371        0        
C1        C        0.3125        0.574075        0.286371        0        
C2        C        0.34375        0.62963        0.286371        0        
C3        C        0.3125        0.648148        0.286371        0        
C4        C        0.34375        0.592592        0.286371        0        
C1        C        0.375        0.018519        0.286371        0        
C2        C        0.40625        0.074075        0.286371        0        
C3        C        0.375        0.092592        0.286371        0        
C4        C        0.40625        0.037037        0.286371        0        
C1        C        0.375        0.12963        0.286371        0        
C2        C        0.40625        0.185185        0.286371        0        
C3        C        0.375        0.203703        0.286371        0        
C4        C        0.40625        0.148148        0.286371        0        
C1        C        0.375        0.24074099999999998        0.286371        0        
C2        C        0.40625        0.296297        0.286371        0        
C3        C        0.375        0.314815        0.286371        0        
C4        C        0.40625        0.259259        0.286371        0        
C1        C        0.375        0.351852        0.286371        0        
C2        C        0.40625        0.407408        0.286371        0        
C3        C        0.375        0.42592500000000005        0.286371        0        
C4        C        0.40625        0.37037        0.286371        0        
C1        C        0.375        0.46296300000000007        0.286371        0        
C2        C        0.40625        0.518519        0.286371        0        
C3        C        0.375        0.537037        0.286371        0        
C4        C        0.40625        0.481481        0.286371        0        
C1        C        0.375        0.574075        0.286371        0        
C2        C        0.40625        0.62963        0.286371        0        
C3        C        0.375        0.648148        0.286371        0        
C4        C        0.40625        0.592592        0.286371        0        
C1        C        0.4375        0.018519        0.286371        0        
C2        C        0.46875        0.074075        0.286371        0        
C3        C        0.4375        0.092592        0.286371        0        
C4        C        0.46875        0.037037        0.286371        0        
C1        C        0.4375        0.12963        0.286371        0        
C2        C        0.46875        0.185185        0.286371        0        
C3        C        0.4375        0.203703        0.286371        0        
C4        C        0.46875        0.148148        0.286371        0        
C1        C        0.4375        0.24074099999999998        0.286371        0        
C2        C        0.46875        0.296297        0.286371        0        
C3        C        0.4375        0.314815        0.286371        0        
C4        C        0.46875        0.259259        0.286371        0        
C1        C        0.4375        0.351852        0.286371        0        
C2        C        0.46875        0.407408        0.286371        0        
C3        C        0.4375        0.42592500000000005        0.286371        0        
C4        C        0.46875        0.37037        0.286371        0        
C1        C        0.4375        0.46296300000000007        0.286371        0        
C2        C        0.46875        0.518519        0.286371        0        
C3        C        0.4375        0.537037        0.286371        0        
C4        C        0.46875        0.481481        0.286371        0        
C1        C        0.4375        0.574075        0.286371        0        
C2        C        0.46875        0.62963        0.286371        0        
C3        C        0.4375        0.648148        0.286371        0        
C4        C        0.46875        0.592592        0.286371        0        
C_FG        C        0.5        0.018519        0.286371        0.08        
C2        C        0.53125        0.074075        0.286371        0        
C3        C        0.5        0.092592        0.286371        0        
C4        C        0.53125        0.037037        0.286371        0        
C1        C        0.5        0.12963        0.286371        0        
C2        C        0.53125        0.185185        0.286371        0        
C_FG        C        0.5        0.203703        0.286371        0.08        
C4        C        0.53125        0.148148        0.286371        0        
C1        C        0.5        0.24074099999999998        0.286371        0        
C2        C        0.53125        0.296297        0.286371        0        
C3        C        0.5        0.314815        0.286371        0        
C4        C        0.53125        0.259259        0.286371        0        
C_FG        C        0.5        0.351852        0.286371        0.08        
C2        C        0.53125        0.407408        0.286371        0        
C3        C        0.5        0.42592500000000005        0.286371        0        
C4        C        0.53125        0.37037        0.286371        0        
C1        C        0.5        0.46296300000000007        0.286371        0        
C2        C        0.53125        0.518519        0.286371        0        
C_FG        C        0.5        0.537037        0.286371        0.08        
C4        C        0.53125        0.481481        0.286371        0        
C1        C        0.5        0.574075        0.286371        0        
C2        C        0.53125        0.62963        0.286371        0        
C3        C        0.5        0.648148        0.286371        0        
C4        C        0.53125        0.592592        0.286371        0        
C1        C        0.5625        0.018519        0.286371        0        
C2        C        0.59375        0.074075        0.286371        0        
C3        C        0.5625        0.092592        0.286371        0        
C4        C        0.59375        0.037037        0.286371        0        
C1        C        0.5625        0.12963        0.286371        0        
C2        C        0.59375        0.185185        0.286371        0        
C3        C        0.5625        0.203703        0.286371        0        
C4        C        0.59375        0.148148        0.286371        0        
C1        C        0.5625        0.24074099999999998        0.286371        0        
C2        C        0.59375        0.296297        0.286371        0        
C3        C        0.5625        0.314815        0.286371        0        
C4        C        0.59375        0.259259        0.286371        0        
C1        C        0.5625        0.351852        0.286371        0        
C2        C        0.59375        0.407408        0.286371        0        
C3        C        0.5625        0.42592500000000005        0.286371        0        
C4        C        0.59375        0.37037        0.286371        0        
C1        C        0.5625        0.46296300000000007        0.286371        0        
C2        C        0.59375        0.518519        0.286371        0        
C3        C        0.5625        0.537037        0.286371        0        
C4        C        0.59375        0.481481        0.286371        0        
C1        C        0.5625        0.574075        0.286371        0        
C2        C        0.59375        0.62963        0.286371        0        
C3        C        0.5625        0.648148        0.286371        0        
C4        C        0.59375        0.592592        0.286371        0        
C1        C        0.625        0.018519        0.286371        0        
C2        C        0.65625        0.074075        0.286371        0        
C3        C        0.625        0.092592        0.286371        0        
C4        C        0.65625        0.037037        0.286371        0        
C1        C        0.625        0.12963        0.286371        0        
C2        C        0.65625        0.185185        0.286371        0        
C3        C        0.625        0.203703        0.286371        0        
C4        C        0.65625        0.148148        0.286371        0        
C1        C        0.625        0.24074099999999998        0.286371        0        
C2        C        0.65625        0.296297        0.286371        0        
C3        C        0.625        0.314815        0.286371        0        
C4        C        0.65625        0.259259        0.286371        0        
C1        C        0.625        0.351852        0.286371        0        
C2        C        0.65625        0.407408        0.286371        0        
C3        C        0.625        0.42592500000000005        0.286371        0        
C4        C        0.65625        0.37037        0.286371        0        
C1        C        0.625        0.46296300000000007        0.286371        0        
C2        C        0.65625        0.518519        0.286371        0        
C3        C        0.625        0.537037        0.286371        0        
C4        C        0.65625        0.481481        0.286371        0        
C1        C        0.625        0.574075        0.286371        0        
C2        C        0.65625        0.62963        0.286371        0        
C3        C        0.625        0.648148        0.286371        0        
C4        C        0.65625        0.592592        0.286371        0        
C1        C        0.6875        0.018519        0.286371        0        
C2        C        0.71875        0.074075        0.286371        0        
C3        C        0.6875        0.092592        0.286371        0        
C4        C        0.71875        0.037037        0.286371        0        
C1        C        0.6875        0.12963        0.286371        0        
C2        C        0.71875        0.185185        0.286371        0        
C3        C        0.6875        0.203703        0.286371        0        
C4        C        0.71875        0.148148        0.286371        0        
C1        C        0.6875        0.24074099999999998        0.286371        0        
C2        C        0.71875        0.296297        0.286371        0        
C3        C        0.6875        0.314815        0.286371        0        
C4        C        0.71875        0.259259        0.286371        0        
C1        C        0.6875        0.351852        0.286371        0        
C2        C        0.71875        0.407408        0.286371        0        
C3        C        0.6875        0.42592500000000005        0.286371        0        
C4        C        0.71875        0.37037        0.286371        0        
C1        C        0.6875        0.46296300000000007        0.286371        0        
C2        C        0.71875        0.518519        0.286371        0        
C3        C        0.6875        0.537037        0.286371        0        
C4        C        0.71875        0.481481        0.286371        0        
C1        C        0.6875        0.574075        0.286371        0        
C2        C        0.71875        0.62963        0.286371        0        
C3        C        0.6875        0.648148        0.286371        0        
C4        C        0.71875        0.592592        0.286371        0        
C_FG        C        0.75        0.018519        0.286371        0.08        
C2        C        0.78125        0.074075        0.286371        0        
C3        C        0.75        0.092592        0.286371        0        
C4        C        0.78125        0.037037        0.286371        0        
C1        C        0.75        0.12963        0.286371        0        
C2        C        0.78125        0.185185        0.286371        0        
C_FG        C        0.75        0.203703        0.286371        0.08        
C4        C        0.78125        0.148148        0.286371        0        
C1        C        0.75        0.24074099999999998        0.286371        0        
C2        C        0.78125        0.296297        0.286371        0        
C3        C        0.75        0.314815        0.286371        0        
C4        C        0.78125        0.259259        0.286371        0        
C_FG        C        0.75        0.351852        0.286371        0.08        
C2        C        0.78125        0.407408        0.286371        0        
C3        C        0.75        0.42592500000000005        0.286371        0        
C4        C        0.78125        0.37037        0.286371        0        
C1        C        0.75        0.46296300000000007        0.286371        0        
C2        C        0.78125        0.518519        0.286371        0        
C_FG        C        0.75        0.537037        0.286371        0.08        
C4        C        0.78125        0.481481        0.286371        0        
C1        C        0.75        0.574075        0.286371        0        
C2        C        0.78125        0.62963        0.286371        0        
C3        C        0.75        0.648148        0.286371        0        
C4        C        0.78125        0.592592        0.286371        0        
C1        C        0.8125        0.018519        0.286371        0        
C2        C        0.84375        0.074075        0.286371        0        
C3        C        0.8125        0.092592        0.286371        0        
C4        C        0.84375        0.037037        0.286371        0        
C1        C        0.8125        0.12963        0.286371        0        
C2        C        0.84375        0.185185        0.286371        0        
C3        C        0.8125        0.203703        0.286371        0        
C4        C        0.84375        0.148148        0.286371        0        
C1        C        0.8125        0.24074099999999998        0.286371        0        
C2        C        0.84375        0.296297        0.286371        0        
C3        C        0.8125        0.314815        0.286371        0        
C4        C        0.84375        0.259259        0.286371        0        
C1        C        0.8125        0.351852        0.286371        0        
C2        C        0.84375        0.407408        0.286371        0        
C3        C        0.8125        0.42592500000000005        0.286371        0        
C4        C        0.84375        0.37037        0.286371        0        
C1        C        0.8125        0.46296300000000007        0.286371        0        
C2        C        0.84375        0.518519        0.286371        0        
C3        C        0.8125        0.537037        0.286371        0        
C4        C        0.84375        0.481481        0.286371        0        
C1        C        0.8125        0.574075        0.286371        0        
C2        C        0.84375        0.62963        0.286371        0        
C3        C        0.8125        0.648148        0.286371        0        
C4        C        0.84375        0.592592        0.286371        0        
C1        C        0.875        0.018519        0.286371        0        
C2        C        0.9062500000000001        0.074075        0.286371        0        
C3        C        0.875        0.092592        0.286371        0        
C4        C        0.9062500000000001        0.037037        0.286371        0        
C1        C        0.875        0.12963        0.286371        0        
C2        C        0.9062500000000001        0.185185        0.286371        0        
C3        C        0.875        0.203703        0.286371        0        
C4        C        0.9062500000000001        0.148148        0.286371        0        
C1        C        0.875        0.24074099999999998        0.286371        0        
C2        C        0.9062500000000001        0.296297        0.286371        0        
C3        C        0.875        0.314815        0.286371        0        
C4        C        0.9062500000000001        0.259259        0.286371        0        
C1        C        0.875        0.351852        0.286371        0        
C2        C        0.9062500000000001        0.407408        0.286371        0        
C3        C        0.875        0.42592500000000005        0.286371        0        
C4        C        0.9062500000000001        0.37037        0.286371        0        
C1        C        0.875        0.46296300000000007        0.286371        0        
C2        C        0.9062500000000001        0.518519        0.286371        0        
C3        C        0.875        0.537037        0.286371        0        
C4        C        0.9062500000000001        0.481481        0.286371        0        
C1        C        0.875        0.574075        0.286371        0        
C2        C        0.9062500000000001        0.62963        0.286371        0        
C3        C        0.875        0.648148        0.286371        0        
C4        C        0.9062500000000001        0.592592        0.286371        0        
C1        C        0.9375        0.018519        0.286371        0        
C2        C        0.9687500000000001        0.074075        0.286371        0        
C3        C        0.9375        0.092592        0.286371        0        
C4        C        0.9687500000000001        0.037037        0.286371        0        
C1        C        0.9375        0.12963        0.286371        0        
C2        C        0.9687500000000001        0.185185        0.286371        0        
C3        C        0.9375        0.203703        0.286371        0        
C4        C        0.9687500000000001        0.148148        0.286371        0        
C1        C        0.9375        0.24074099999999998        0.286371        0        
C2        C        0.9687500000000001        0.296297        0.286371        0        
C3        C        0.9375        0.314815        0.286371        0        
C4        C        0.9687500000000001        0.259259        0.286371        0        
C1        C        0.9375        0.351852        0.286371        0        
C2        C        0.9687500000000001        0.407408        0.286371        0        
C3        C        0.9375        0.42592500000000005        0.286371        0        
C4        C        0.9687500000000001        0.37037        0.286371        0        
C1        C        0.9375        0.46296300000000007        0.286371        0        
C2        C        0.9687500000000001        0.518519        0.286371        0        
C3        C        0.9375        0.537037        0.286371        0        
C4        C        0.9687500000000001        0.481481        0.286371        0        
C1        C        0.9375        0.574075        0.286371        0        
C2        C        0.9687500000000001        0.62963        0.286371        0        
C3        C        0.9375        0.648148        0.286371        0        
C4        C        0.9687500000000001        0.592592        0.286371        0        
C_FG        C        0.0        0.685186        0.286371        0.08        
C1        C        0.0625        0.685186        0.286371        0        
C1        C        0.125        0.685186        0.286371        0        
C1        C        0.1875        0.685186        0.286371        0        
C_FG        C        0.25        0.685186        0.286371        0.08        
C1        C        0.3125        0.685186        0.286371        0        
C1        C        0.375        0.685186        0.286371        0        
C1        C        0.4375        0.685186        0.286371        0        
C_FG        C        0.5        0.685186        0.286371        0.08        
C1        C        0.5625        0.685186        0.286371        0        
C1        C        0.625        0.685186        0.286371        0        
C1        C        0.6875        0.685186        0.286371        0        
C_FG        C        0.75        0.685186        0.286371        0.08        
C1        C        0.8125        0.685186        0.286371        0        
C1        C        0.875        0.685186        0.286371        0        
C1        C        0.9375        0.685186        0.286371        0        
C2        C        0.03125        0.740741        0.286371        0        
C2        C        0.09375        0.740741        0.286371        0        
C2        C        0.15625        0.740741        0.286371        0        
C2        C        0.21875        0.740741        0.286371        0        
C2        C        0.28125        0.740741        0.286371        0        
C2        C        0.34375        0.740741        0.286371        0        
C2        C        0.40625        0.740741        0.286371        0        
C2        C        0.46875        0.740741        0.286371        0        
C2        C        0.53125        0.740741        0.286371        0        
C2        C        0.59375        0.740741        0.286371        0        
C2        C        0.65625        0.740741        0.286371        0        
C2        C        0.71875        0.740741        0.286371        0        
C2        C        0.78125        0.740741        0.286371        0        
C2        C        0.84375        0.740741        0.286371        0        
C2        C        0.9062500000000001        0.740741        0.286371        0        
C2        C        0.9687500000000001        0.740741        0.286371        0        
C3        C        0.0        0.759259        0.286371        0        
C3        C        0.0625        0.759259        0.286371        0        
C3        C        0.125        0.759259        0.286371        0        
C3        C        0.1875        0.759259        0.286371        0        
C3        C        0.25        0.759259        0.286371        0        
C3        C        0.3125        0.759259        0.286371        0        
C3        C        0.375        0.759259        0.286371        0        
C3        C        0.4375        0.759259        0.286371        0        
C3        C        0.5        0.759259        0.286371        0        
C3        C        0.5625        0.759259        0.286371        0        
C3        C        0.625        0.759259        0.286371        0        
C3        C        0.6875        0.759259        0.286371        0        
C3        C        0.75        0.759259        0.286371        0        
C3        C        0.8125        0.759259        0.286371        0        
C3        C        0.875        0.759259        0.286371        0        
C3        C        0.9375        0.759259        0.286371        0        
C4        C        0.03125        0.703703        0.286371        0        
C4        C        0.09375        0.703703        0.286371        0        
C4        C        0.15625        0.703703        0.286371        0        
C4        C        0.21875        0.703703        0.286371        0        
C4        C        0.28125        0.703703        0.286371        0        
C4        C        0.34375        0.703703        0.286371        0        
C4        C        0.40625        0.703703        0.286371        0        
C4        C        0.46875        0.703703        0.286371        0        
C4        C        0.53125        0.703703        0.286371        0        
C4        C        0.59375        0.703703        0.286371        0        
C4        C        0.65625        0.703703        0.286371        0        
C4        C        0.71875        0.703703        0.286371        0        
C4        C        0.78125        0.703703        0.286371        0        
C4        C        0.84375        0.703703        0.286371        0        
C4        C        0.9062500000000001        0.703703        0.286371        0        
C4        C        0.9687500000000001        0.703703        0.286371        0        
C1        C        0.0        0.796297        0.286371        0        
C1        C        0.0625        0.796297        0.286371        0        
C1        C        0.125        0.796297        0.286371        0        
C1        C        0.1875        0.796297        0.286371        0        
C1        C        0.25        0.796297        0.286371        0        
C1        C        0.3125        0.796297        0.286371        0        
C1        C        0.375        0.796297        0.286371        0        
C1        C        0.4375        0.796297        0.286371        0        
C1        C        0.5        0.796297        0.286371        0        
C1        C        0.5625        0.796297        0.286371        0        
C1        C        0.625        0.796297        0.286371        0        
C1        C        0.6875        0.796297        0.286371        0        
C1        C        0.75        0.796297        0.286371        0        
C1        C        0.8125        0.796297        0.286371        0        
C1        C        0.875        0.796297        0.286371        0        
C1        C        0.9375        0.796297        0.286371        0        
C2        C        0.03125        0.851852        0.286371        0        
C2        C        0.09375        0.851852        0.286371        0        
C2        C        0.15625        0.851852        0.286371        0        
C2        C        0.21875        0.851852        0.286371        0        
C2        C        0.28125        0.851852        0.286371        0        
C2        C        0.34375        0.851852        0.286371        0        
C2        C        0.40625        0.851852        0.286371        0        
C2        C        0.46875        0.851852        0.286371        0        
C2        C        0.53125        0.851852        0.286371        0        
C2        C        0.59375        0.851852        0.286371        0        
C2        C        0.65625        0.851852        0.286371        0        
C2        C        0.71875        0.851852        0.286371        0        
C2        C        0.78125        0.851852        0.286371        0        
C2        C        0.84375        0.851852        0.286371        0        
C2        C        0.9062500000000001        0.851852        0.286371        0        
C2        C        0.9687500000000001        0.851852        0.286371        0        
C_FG        C        0.0        0.87037        0.286371        0.08        
C3        C        0.0625        0.87037        0.286371        0        
C3        C        0.125        0.87037        0.286371        0        
C3        C        0.1875        0.87037        0.286371        0        
C_FG        C        0.25        0.87037        0.286371        0.08        
C3        C        0.3125        0.87037        0.286371        0        
C3        C        0.375        0.87037        0.286371        0        
C3        C        0.4375        0.87037        0.286371        0        
C_FG        C        0.5        0.87037        0.286371        0.08        
C3        C        0.5625        0.87037        0.286371        0        
C3        C        0.625        0.87037        0.286371        0        
C3        C        0.6875        0.87037        0.286371        0        
C_FG        C        0.75        0.87037        0.286371        0.08        
C3        C        0.8125        0.87037        0.286371        0        
C3        C        0.875        0.87037        0.286371        0        
C3        C        0.9375        0.87037        0.286371        0        
C4        C        0.03125        0.814814        0.286371        0        
C4        C        0.09375        0.814814        0.286371        0        
C4        C        0.15625        0.814814        0.286371        0        
C4        C        0.21875        0.814814        0.286371        0        
C4        C        0.28125        0.814814        0.286371        0        
C4        C        0.34375        0.814814        0.286371        0        
C4        C        0.40625        0.814814        0.286371        0        
C4        C        0.46875        0.814814        0.286371        0        
C4        C        0.53125        0.814814        0.286371        0        
C4        C        0.59375        0.814814        0.286371        0        
C4        C        0.65625        0.814814        0.286371        0        
C4        C        0.71875        0.814814        0.286371        0        
C4        C        0.78125        0.814814        0.286371        0        
C4        C        0.84375        0.814814        0.286371        0        
C4        C        0.9062500000000001        0.814814        0.286371        0        
C4        C        0.9687500000000001        0.814814        0.286371        0        
C1        C        0.0        0.907408        0.286371        0        
C1        C        0.0625        0.907408        0.286371        0        
C1        C        0.125        0.907408        0.286371        0        
C1        C        0.1875        0.907408        0.286371        0        
C1        C        0.25        0.907408        0.286371        0        
C1        C        0.3125        0.907408        0.286371        0        
C1        C        0.375        0.907408        0.286371        0        
C1        C        0.4375        0.907408        0.286371        0        
C1        C        0.5        0.907408        0.286371        0        
C1        C        0.5625        0.907408        0.286371        0        
C1        C        0.625        0.907408        0.286371        0        
C1        C        0.6875        0.907408        0.286371        0        
C1        C        0.75        0.907408        0.286371        0        
C1        C        0.8125        0.907408        0.286371        0        
C1        C        0.875        0.907408        0.286371        0        
C1        C        0.9375        0.907408        0.286371        0        
C2        C        0.03125        0.962963        0.286371        0        
C2        C        0.09375        0.962963        0.286371        0        
C2        C        0.15625        0.962963        0.286371        0        
C2        C        0.21875        0.962963        0.286371        0        
C2        C        0.28125        0.962963        0.286371        0        
C2        C        0.34375        0.962963        0.286371        0        
C2        C        0.40625        0.962963        0.286371        0        
C2        C        0.46875        0.962963        0.286371        0        
C2        C        0.53125        0.962963        0.286371        0        
C2        C        0.59375        0.962963        0.286371        0        
C2        C        0.65625        0.962963        0.286371        0        
C2        C        0.71875        0.962963        0.286371        0        
C2        C        0.78125        0.962963        0.286371        0        
C2        C        0.84375        0.962963        0.286371        0        
C2        C        0.9062500000000001        0.962963        0.286371        0        
C2        C        0.9687500000000001        0.962963        0.286371        0        
C3        C        0.0        0.9814809999999999        0.286371        0        
C3        C        0.0625        0.9814809999999999        0.286371        0        
C3        C        0.125        0.9814809999999999        0.286371        0        
C3        C        0.1875        0.9814809999999999        0.286371        0        
C3        C        0.25        0.9814809999999999        0.286371        0        
C3        C        0.3125        0.9814809999999999        0.286371        0        
C3        C        0.375        0.9814809999999999        0.286371        0        
C3        C        0.4375        0.9814809999999999        0.286371        0        
C3        C        0.5        0.9814809999999999        0.286371        0        
C3        C        0.5625        0.9814809999999999        0.286371        0        
C3        C        0.625        0.9814809999999999        0.286371        0        
C3        C        0.6875        0.9814809999999999        0.286371        0        
C3        C        0.75        0.9814809999999999        0.286371        0        
C3        C        0.8125        0.9814809999999999        0.286371        0        
C3        C        0.875        0.9814809999999999        0.286371        0        
C3        C        0.9375        0.9814809999999999        0.286371        0        
C4        C        0.03125        0.925925        0.286371        0        
C4        C        0.09375        0.925925        0.286371        0        
C4        C        0.15625        0.925925        0.286371        0        
C4        C        0.21875        0.925925        0.286371        0        
C4        C        0.28125        0.925925        0.286371        0        
C4        C        0.34375        0.925925        0.286371        0        
C4        C        0.40625        0.925925        0.286371        0        
C4        C        0.46875        0.925925        0.286371        0        
C4        C        0.53125        0.925925        0.286371        0        
C4        C        0.59375        0.925925        0.286371        0        
C4        C        0.65625        0.925925        0.286371        0        
C4        C        0.71875        0.925925        0.286371        0        
C4        C        0.78125        0.925925        0.286371        0        
C4        C        0.84375        0.925925        0.286371        0        
C4        C        0.9062500000000001        0.925925        0.286371        0        
C4        C        0.9687500000000001        0.925925        0.286371        0        
C_FG        C        0.0        0.018519        0.71363        0.08        
C2        C        0.03125        0.074075        0.71363        0        
C3        C        0.0        0.092592        0.71363        0        
C4        C        0.03125        0.037037        0.71363        0        
C1        C        0.0        0.12963        0.71363        0        
C2        C        0.03125        0.185185        0.71363        0        
C_FG        C        0.0        0.203703        0.71363        0.08        
C4        C        0.03125        0.148148        0.71363        0        
C1        C        0.0        0.24074099999999998        0.71363        0        
C2        C        0.03125        0.296297        0.71363        0        
C3        C        0.0        0.314815        0.71363        0        
C4        C        0.03125        0.259259        0.71363        0        
C_FG        C        0.0        0.351852        0.71363        0.08        
C2        C        0.03125        0.407408        0.71363        0        
C3        C        0.0        0.42592500000000005        0.71363        0        
C4        C        0.03125        0.37037        0.71363        0        
C1        C        0.0        0.46296300000000007        0.71363        0        
C2        C        0.03125        0.518519        0.71363        0        
C_FG        C        0.0        0.537037        0.71363        0.08        
C4        C        0.03125        0.481481        0.71363        0        
C1        C        0.0        0.574075        0.71363        0        
C2        C        0.03125        0.62963        0.71363        0        
C3        C        0.0        0.648148        0.71363        0        
C4        C        0.03125        0.592592        0.71363        0        
C1        C        0.0625        0.018519        0.71363        0        
C2        C        0.09375        0.074075        0.71363        0        
C3        C        0.0625        0.092592        0.71363        0        
C4        C        0.09375        0.037037        0.71363        0        
C1        C        0.0625        0.12963        0.71363        0        
C2        C        0.09375        0.185185        0.71363        0        
C3        C        0.0625        0.203703        0.71363        0        
C4        C        0.09375        0.148148        0.71363        0        
C1        C        0.0625        0.24074099999999998        0.71363        0        
C2        C        0.09375        0.296297        0.71363        0        
C3        C        0.0625        0.314815        0.71363        0        
C4        C        0.09375        0.259259        0.71363        0        
C1        C        0.0625        0.351852        0.71363        0        
C2        C        0.09375        0.407408        0.71363        0        
C3        C        0.0625        0.42592500000000005        0.71363        0        
C4        C        0.09375        0.37037        0.71363        0        
C1        C        0.0625        0.46296300000000007        0.71363        0        
C2        C        0.09375        0.518519        0.71363        0        
C3        C        0.0625        0.537037        0.71363        0        
C4        C        0.09375        0.481481        0.71363        0        
C1        C        0.0625        0.574075        0.71363        0        
C2        C        0.09375        0.62963        0.71363        0        
C3        C        0.0625        0.648148        0.71363        0        
C4        C        0.09375        0.592592        0.71363        0        
C1        C        0.125        0.018519        0.71363        0        
C2        C        0.15625        0.074075        0.71363        0        
C3        C        0.125        0.092592        0.71363        0        
C4        C        0.15625        0.037037        0.71363        0        
C1        C        0.125        0.12963        0.71363        0        
C2        C        0.15625        0.185185        0.71363        0        
C3        C        0.125        0.203703        0.71363        0        
C4        C        0.15625        0.148148        0.71363        0        
C1        C        0.125        0.24074099999999998        0.71363        0        
C2        C        0.15625        0.296297        0.71363        0        
C3        C        0.125        0.314815        0.71363        0        
C4        C        0.15625        0.259259        0.71363        0        
C1        C        0.125        0.351852        0.71363        0        
C2        C        0.15625        0.407408        0.71363        0        
C3        C        0.125        0.42592500000000005        0.71363        0        
C4        C        0.15625        0.37037        0.71363        0        
C1        C        0.125        0.46296300000000007        0.71363        0        
C2        C        0.15625        0.518519        0.71363        0        
C3        C        0.125        0.537037        0.71363        0        
C4        C        0.15625        0.481481        0.71363        0        
C1        C        0.125        0.574075        0.71363        0        
C2        C        0.15625        0.62963        0.71363        0        
C3        C        0.125        0.648148        0.71363        0        
C4        C        0.15625        0.592592        0.71363        0        
C1        C        0.1875        0.018519        0.71363        0        
C2        C        0.21875        0.074075        0.71363        0        
C3        C        0.1875        0.092592        0.71363        0        
C4        C        0.21875        0.037037        0.71363        0        
C1        C        0.1875        0.12963        0.71363        0        
C2        C        0.21875        0.185185        0.71363        0        
C3        C        0.1875        0.203703        0.71363        0        
C4        C        0.21875        0.148148        0.71363        0        
C1        C        0.1875        0.24074099999999998        0.71363        0        
C2        C        0.21875        0.296297        0.71363        0        
C3        C        0.1875        0.314815        0.71363        0        
C4        C        0.21875        0.259259        0.71363        0        
C1        C        0.1875        0.351852        0.71363        0        
C2        C        0.21875        0.407408        0.71363        0        
C3        C        0.1875        0.42592500000000005        0.71363        0        
C4        C        0.21875        0.37037        0.71363        0        
C1        C        0.1875        0.46296300000000007        0.71363        0        
C2        C        0.21875        0.518519        0.71363        0        
C3        C        0.1875        0.537037        0.71363        0        
C4        C        0.21875        0.481481        0.71363        0        
C1        C        0.1875        0.574075        0.71363        0        
C2        C        0.21875        0.62963        0.71363        0        
C3        C        0.1875        0.648148        0.71363        0        
C4        C        0.21875        0.592592        0.71363        0        
C_FG        C        0.25        0.018519        0.71363        0.08        
C2        C        0.28125        0.074075        0.71363        0        
C3        C        0.25        0.092592        0.71363        0        
C4        C        0.28125        0.037037        0.71363        0        
C1        C        0.25        0.12963        0.71363        0        
C2        C        0.28125        0.185185        0.71363        0        
C_FG        C        0.25        0.203703        0.71363        0.08        
C4        C        0.28125        0.148148        0.71363        0        
C1        C        0.25        0.24074099999999998        0.71363        0        
C2        C        0.28125        0.296297        0.71363        0        
C3        C        0.25        0.314815        0.71363        0        
C4        C        0.28125        0.259259        0.71363        0        
C_FG        C        0.25        0.351852        0.71363        0.08        
C2        C        0.28125        0.407408        0.71363        0        
C3        C        0.25        0.42592500000000005        0.71363        0        
C4        C        0.28125        0.37037        0.71363        0        
C1        C        0.25        0.46296300000000007        0.71363        0        
C2        C        0.28125        0.518519        0.71363        0        
C_FG        C        0.25        0.537037        0.71363        0.08        
C4        C        0.28125        0.481481        0.71363        0        
C1        C        0.25        0.574075        0.71363        0        
C2        C        0.28125        0.62963        0.71363        0        
C3        C        0.25        0.648148        0.71363        0        
C4        C        0.28125        0.592592        0.71363        0        
C1        C        0.3125        0.018519        0.71363        0        
C2        C        0.34375        0.074075        0.71363        0        
C3        C        0.3125        0.092592        0.71363        0        
C4        C        0.34375        0.037037        0.71363        0        
C1        C        0.3125        0.12963        0.71363        0        
C2        C        0.34375        0.185185        0.71363        0        
C3        C        0.3125        0.203703        0.71363        0        
C4        C        0.34375        0.148148        0.71363        0        
C1        C        0.3125        0.24074099999999998        0.71363        0        
C2        C        0.34375        0.296297        0.71363        0        
C3        C        0.3125        0.314815        0.71363        0        
C4        C        0.34375        0.259259        0.71363        0        
C1        C        0.3125        0.351852        0.71363        0        
C2        C        0.34375        0.407408        0.71363        0        
C3        C        0.3125        0.42592500000000005        0.71363        0        
C4        C        0.34375        0.37037        0.71363        0        
C1        C        0.3125        0.46296300000000007        0.71363        0        
C2        C        0.34375        0.518519        0.71363        0        
C3        C        0.3125        0.537037        0.71363        0        
C4        C        0.34375        0.481481        0.71363        0        
C1        C        0.3125        0.574075        0.71363        0        
C2        C        0.34375        0.62963        0.71363        0        
C3        C        0.3125        0.648148        0.71363        0        
C4        C        0.34375        0.592592        0.71363        0        
C1        C        0.375        0.018519        0.71363        0        
C2        C        0.40625        0.074075        0.71363        0        
C3        C        0.375        0.092592        0.71363        0        
C4        C        0.40625        0.037037        0.71363        0        
C1        C        0.375        0.12963        0.71363        0        
C2        C        0.40625        0.185185        0.71363        0        
C3        C        0.375        0.203703        0.71363        0        
C4        C        0.40625        0.148148        0.71363        0        
C1        C        0.375        0.24074099999999998        0.71363        0        
C2        C        0.40625        0.296297        0.71363        0        
C3        C        0.375        0.314815        0.71363        0        
C4        C        0.40625        0.259259        0.71363        0        
C1        C        0.375        0.351852        0.71363        0        
C2        C        0.40625        0.407408        0.71363        0        
C3        C        0.375        0.42592500000000005        0.71363        0        
C4        C        0.40625        0.37037        0.71363        0        
C1        C        0.375        0.46296300000000007        0.71363        0        
C2        C        0.40625        0.518519        0.71363        0        
C3        C        0.375        0.537037        0.71363        0        
C4        C        0.40625        0.481481        0.71363        0        
C1        C        0.375        0.574075        0.71363        0        
C2        C        0.40625        0.62963        0.71363        0        
C3        C        0.375        0.648148        0.71363        0        
C4        C        0.40625        0.592592        0.71363        0        
C1        C        0.4375        0.018519        0.71363        0        
C2        C        0.46875        0.074075        0.71363        0        
C3        C        0.4375        0.092592        0.71363        0        
C4        C        0.46875        0.037037        0.71363        0        
C1        C        0.4375        0.12963        0.71363        0        
C2        C        0.46875        0.185185        0.71363        0        
C3        C        0.4375        0.203703        0.71363        0        
C4        C        0.46875        0.148148        0.71363        0        
C1        C        0.4375        0.24074099999999998        0.71363        0        
C2        C        0.46875        0.296297        0.71363        0        
C3        C        0.4375        0.314815        0.71363        0        
C4        C        0.46875        0.259259        0.71363        0        
C1        C        0.4375        0.351852        0.71363        0        
C2        C        0.46875        0.407408        0.71363        0        
C3        C        0.4375        0.42592500000000005        0.71363        0        
C4        C        0.46875        0.37037        0.71363        0        
C1        C        0.4375        0.46296300000000007        0.71363        0        
C2        C        0.46875        0.518519        0.71363        0        
C3        C        0.4375        0.537037        0.71363        0        
C4        C        0.46875        0.481481        0.71363        0        
C1        C        0.4375        0.574075        0.71363        0        
C2        C        0.46875        0.62963        0.71363        0        
C3        C        0.4375        0.648148        0.71363        0        
C4        C        0.46875        0.592592        0.71363        0        
C_FG        C        0.5        0.018519        0.71363        0.08        
C2        C        0.53125        0.074075        0.71363        0        
C3        C        0.5        0.092592        0.71363        0        
C4        C        0.53125        0.037037        0.71363        0        
C1        C        0.5        0.12963        0.71363        0        
C2        C        0.53125        0.185185        0.71363        0        
C_FG        C        0.5        0.203703        0.71363        0.08        
C4        C        0.53125        0.148148        0.71363        0        
C1        C        0.5        0.24074099999999998        0.71363        0        
C2        C        0.53125        0.296297        0.71363        0        
C3        C        0.5        0.314815        0.71363        0        
C4        C        0.53125        0.259259        0.71363        0        
C_FG        C        0.5        0.351852        0.71363        0.08        
C2        C        0.53125        0.407408        0.71363        0        
C3        C        0.5        0.42592500000000005        0.71363        0        
C4        C        0.53125        0.37037        0.71363        0        
C1        C        0.5        0.46296300000000007        0.71363        0        
C2        C        0.53125        0.518519        0.71363        0        
C_FG        C        0.5        0.537037        0.71363        0.08        
C4        C        0.53125        0.481481        0.71363        0        
C1        C        0.5        0.574075        0.71363        0        
C2        C        0.53125        0.62963        0.71363        0        
C3        C        0.5        0.648148        0.71363        0        
C4        C        0.53125        0.592592        0.71363        0        
C1        C        0.5625        0.018519        0.71363        0        
C2        C        0.59375        0.074075        0.71363        0        
C3        C        0.5625        0.092592        0.71363        0        
C4        C        0.59375        0.037037        0.71363        0        
C1        C        0.5625        0.12963        0.71363        0        
C2        C        0.59375        0.185185        0.71363        0        
C3        C        0.5625        0.203703        0.71363        0        
C4        C        0.59375        0.148148        0.71363        0        
C1        C        0.5625        0.24074099999999998        0.71363        0        
C2        C        0.59375        0.296297        0.71363        0        
C3        C        0.5625        0.314815        0.71363        0        
C4        C        0.59375        0.259259        0.71363        0        
C1        C        0.5625        0.351852        0.71363        0        
C2        C        0.59375        0.407408        0.71363        0        
C3        C        0.5625        0.42592500000000005        0.71363        0        
C4        C        0.59375        0.37037        0.71363        0        
C1        C        0.5625        0.46296300000000007        0.71363        0        
C2        C        0.59375        0.518519        0.71363        0        
C3        C        0.5625        0.537037        0.71363        0        
C4        C        0.59375        0.481481        0.71363        0        
C1        C        0.5625        0.574075        0.71363        0        
C2        C        0.59375        0.62963        0.71363        0        
C3        C        0.5625        0.648148        0.71363        0        
C4        C        0.59375        0.592592        0.71363        0        
C1        C        0.625        0.018519        0.71363        0        
C2        C        0.65625        0.074075        0.71363        0        
C3        C        0.625        0.092592        0.71363        0        
C4        C        0.65625        0.037037        0.71363        0        
C1        C        0.625        0.12963        0.71363        0        
C2        C        0.65625        0.185185        0.71363        0        
C3        C        0.625        0.203703        0.71363        0        
C4        C        0.65625        0.148148        0.71363        0        
C1        C        0.625        0.24074099999999998        0.71363        0        
C2        C        0.65625        0.296297        0.71363        0        
C3        C        0.625        0.314815        0.71363        0        
C4        C        0.65625        0.259259        0.71363        0        
C1        C        0.625        0.351852        0.71363        0        
C2        C        0.65625        0.407408        0.71363        0        
C3        C        0.625        0.42592500000000005        0.71363        0        
C4        C        0.65625        0.37037        0.71363        0        
C1        C        0.625        0.46296300000000007        0.71363        0        
C2        C        0.65625        0.518519        0.71363        0        
C3        C        0.625        0.537037        0.71363        0        
C4        C        0.65625        0.481481        0.71363        0        
C1        C        0.625        0.574075        0.71363        0        
C2        C        0.65625        0.62963        0.71363        0        
C3        C        0.625        0.648148        0.71363        0        
C4        C        0.65625        0.592592        0.71363        0        
C1        C        0.6875        0.018519        0.71363        0        
C2        C        0.71875        0.074075        0.71363        0        
C3        C        0.6875        0.092592        0.71363        0        
C4        C        0.71875        0.037037        0.71363        0        
C1        C        0.6875        0.12963        0.71363        0        
C2        C        0.71875        0.185185        0.71363        0        
C3        C        0.6875        0.203703        0.71363        0        
C4        C        0.71875        0.148148        0.71363        0        
C1        C        0.6875        0.24074099999999998        0.71363        0        
C2        C        0.71875        0.296297        0.71363        0        
C3        C        0.6875        0.314815        0.71363        0        
C4        C        0.71875        0.259259        0.71363        0        
C1        C        0.6875        0.351852        0.71363        0        
C2        C        0.71875        0.407408        0.71363        0        
C3        C        0.6875        0.42592500000000005        0.71363        0        
C4        C        0.71875        0.37037        0.71363        0        
C1        C        0.6875        0.46296300000000007        0.71363        0        
C2        C        0.71875        0.518519        0.71363        0        
C3        C        0.6875        0.537037        0.71363        0        
C4        C        0.71875        0.481481        0.71363        0        
C1        C        0.6875        0.574075        0.71363        0        
C2        C        0.71875        0.62963        0.71363        0        
C3        C        0.6875        0.648148        0.71363        0        
C4        C        0.71875        0.592592        0.71363        0        
C_FG        C        0.75        0.018519        0.71363        0.08        
C2        C        0.78125        0.074075        0.71363        0        
C3        C        0.75        0.092592        0.71363        0        
C4        C        0.78125        0.037037        0.71363        0        
C1        C        0.75        0.12963        0.71363        0        
C2        C        0.78125        0.185185        0.71363        0        
C_FG        C        0.75        0.203703        0.71363        0.08        
C4        C        0.78125        0.148148        0.71363        0        
C1        C        0.75        0.24074099999999998        0.71363        0        
C2        C        0.78125        0.296297        0.71363        0        
C3        C        0.75        0.314815        0.71363        0        
C4        C        0.78125        0.259259        0.71363        0        
C_FG        C        0.75        0.351852        0.71363        0.08        
C2        C        0.78125        0.407408        0.71363        0        
C3        C        0.75        0.42592500000000005        0.71363        0        
C4        C        0.78125        0.37037        0.71363        0        
C1        C        0.75        0.46296300000000007        0.71363        0        
C2        C        0.78125        0.518519        0.71363        0        
C_FG        C        0.75        0.537037        0.71363        0.08        
C4        C        0.78125        0.481481        0.71363        0        
C1        C        0.75        0.574075        0.71363        0        
C2        C        0.78125        0.62963        0.71363        0        
C3        C        0.75        0.648148        0.71363        0        
C4        C        0.78125        0.592592        0.71363        0        
C1        C        0.8125        0.018519        0.71363        0        
C2        C        0.84375        0.074075        0.71363        0        
C3        C        0.8125        0.092592        0.71363        0        
C4        C        0.84375        0.037037        0.71363        0        
C1        C        0.8125        0.12963        0.71363        0        
C2        C        0.84375        0.185185        0.71363        0        
C3        C        0.8125        0.203703        0.71363        0        
C4        C        0.84375        0.148148        0.71363        0        
C1        C        0.8125        0.24074099999999998        0.71363        0        
C2        C        0.84375        0.296297        0.71363        0        
C3        C        0.8125        0.314815        0.71363        0        
C4        C        0.84375        0.259259        0.71363        0        
C1        C        0.8125        0.351852        0.71363        0        
C2        C        0.84375        0.407408        0.71363        0        
C3        C        0.8125        0.42592500000000005        0.71363        0        
C4        C        0.84375        0.37037        0.71363        0        
C1        C        0.8125        0.46296300000000007        0.71363        0        
C2        C        0.84375        0.518519        0.71363        0        
C3        C        0.8125        0.537037        0.71363        0        
C4        C        0.84375        0.481481        0.71363        0        
C1        C        0.8125        0.574075        0.71363        0        
C2        C        0.84375        0.62963        0.71363        0        
C3        C        0.8125        0.648148        0.71363        0        
C4        C        0.84375        0.592592        0.71363        0        
C1        C        0.875        0.018519        0.71363        0        
C2        C        0.9062500000000001        0.074075        0.71363        0        
C3        C        0.875        0.092592        0.71363        0        
C4        C        0.9062500000000001        0.037037        0.71363        0        
C1        C        0.875        0.12963        0.71363        0        
C2        C        0.9062500000000001        0.185185        0.71363        0        
C3        C        0.875        0.203703        0.71363        0        
C4        C        0.9062500000000001        0.148148        0.71363        0        
C1        C        0.875        0.24074099999999998        0.71363        0        
C2        C        0.9062500000000001        0.296297        0.71363        0        
C3        C        0.875        0.314815        0.71363        0        
C4        C        0.9062500000000001        0.259259        0.71363        0        
C1        C        0.875        0.351852        0.71363        0        
C2        C        0.9062500000000001        0.407408        0.71363        0        
C3        C        0.875        0.42592500000000005        0.71363        0        
C4        C        0.9062500000000001        0.37037        0.71363        0        
C1        C        0.875        0.46296300000000007        0.71363        0        
C2        C        0.9062500000000001        0.518519        0.71363        0        
C3        C        0.875        0.537037        0.71363        0        
C4        C        0.9062500000000001        0.481481        0.71363        0        
C1        C        0.875        0.574075        0.71363        0        
C2        C        0.9062500000000001        0.62963        0.71363        0        
C3        C        0.875        0.648148        0.71363        0        
C4        C        0.9062500000000001        0.592592        0.71363        0        
C1        C        0.9375        0.018519        0.71363        0        
C2        C        0.9687500000000001        0.074075        0.71363        0        
C3        C        0.9375        0.092592        0.71363        0        
C4        C        0.9687500000000001        0.037037        0.71363        0        
C1        C        0.9375        0.12963        0.71363        0        
C2        C        0.9687500000000001        0.185185        0.71363        0        
C3        C        0.9375        0.203703        0.71363        0        
C4        C        0.9687500000000001        0.148148        0.71363        0        
C1        C        0.9375        0.24074099999999998        0.71363        0        
C2        C        0.9687500000000001        0.296297        0.71363        0        
C3        C        0.9375        0.314815        0.71363        0        
C4        C        0.9687500000000001        0.259259        0.71363        0        
C1        C        0.9375        0.351852        0.71363        0        
C2        C        0.9687500000000001        0.407408        0.71363        0        
C3        C        0.9375        0.42592500000000005        0.71363        0        
C4        C        0.9687500000000001        0.37037        0.71363        0        
C1        C        0.9375        0.46296300000000007        0.71363        0        
C2        C        0.9687500000000001        0.518519        0.71363        0        
C3        C        0.9375        0.537037        0.71363        0        
C4        C        0.9687500000000001        0.481481        0.71363        0        
C1        C        0.9375        0.574075        0.71363        0        
C2        C        0.9687500000000001        0.62963        0.71363        0        
C3        C        0.9375        0.648148        0.71363        0        
C4        C        0.9687500000000001        0.592592        0.71363        0        
C_FG        C        0.0        0.685186        0.71363        0.08        
C1        C        0.0625        0.685186        0.71363        0        
C1        C        0.125        0.685186        0.71363        0        
C1        C        0.1875        0.685186        0.71363        0        
C_FG        C        0.25        0.685186        0.71363        0.08        
C1        C        0.3125        0.685186        0.71363        0        
C1        C        0.375        0.685186        0.71363        0        
C1        C        0.4375        0.685186        0.71363        0        
C_FG        C        0.5        0.685186        0.71363        0.08        
C1        C        0.5625        0.685186        0.71363        0        
C1        C        0.625        0.685186        0.71363        0        
C1        C        0.6875        0.685186        0.71363        0        
C_FG        C        0.75        0.685186        0.71363        0.08        
C1        C        0.8125        0.685186        0.71363        0        
C1        C        0.875        0.685186        0.71363        0        
C1        C        0.9375        0.685186        0.71363        0        
C2        C        0.03125        0.740741        0.71363        0        
C2        C        0.09375        0.740741        0.71363        0        
C2        C        0.15625        0.740741        0.71363        0        
C2        C        0.21875        0.740741        0.71363        0        
C2        C        0.28125        0.740741        0.71363        0        
C2        C        0.34375        0.740741        0.71363        0        
C2        C        0.40625        0.740741        0.71363        0        
C2        C        0.46875        0.740741        0.71363        0        
C2        C        0.53125        0.740741        0.71363        0        
C2        C        0.59375        0.740741        0.71363        0        
C2        C        0.65625        0.740741        0.71363        0        
C2        C        0.71875        0.740741        0.71363        0        
C2        C        0.78125        0.740741        0.71363        0        
C2        C        0.84375        0.740741        0.71363        0        
C2        C        0.9062500000000001        0.740741        0.71363        0        
C2        C        0.9687500000000001        0.740741        0.71363        0        
C3        C        0.0        0.759259        0.71363        0        
C3        C        0.0625        0.759259        0.71363        0        
C3        C        0.125        0.759259        0.71363        0        
C3        C        0.1875        0.759259        0.71363        0        
C3        C        0.25        0.759259        0.71363        0        
C3        C        0.3125        0.759259        0.71363        0        
C3        C        0.375        0.759259        0.71363        0        
C3        C        0.4375        0.759259        0.71363        0        
C3        C        0.5        0.759259        0.71363        0        
C3        C        0.5625        0.759259        0.71363        0        
C3        C        0.625        0.759259        0.71363        0        
C3        C        0.6875        0.759259        0.71363        0        
C3        C        0.75        0.759259        0.71363        0        
C3        C        0.8125        0.759259        0.71363        0        
C3        C        0.875        0.759259        0.71363        0        
C3        C        0.9375        0.759259        0.71363        0        
C4        C        0.03125        0.703703        0.71363        0        
C4        C        0.09375        0.703703        0.71363        0        
C4        C        0.15625        0.703703        0.71363        0        
C4        C        0.21875        0.703703        0.71363        0        
C4        C        0.28125        0.703703        0.71363        0        
C4        C        0.34375        0.703703        0.71363        0        
C4        C        0.40625        0.703703        0.71363        0        
C4        C        0.46875        0.703703        0.71363        0        
C4        C        0.53125        0.703703        0.71363        0        
C4        C        0.59375        0.703703        0.71363        0        
C4        C        0.65625        0.703703        0.71363        0        
C4        C        0.71875        0.703703        0.71363        0        
C4        C        0.78125        0.703703        0.71363        0        
C4        C        0.84375        0.703703        0.71363        0        
C4        C        0.9062500000000001        0.703703        0.71363        0        
C4        C        0.9687500000000001        0.703703        0.71363        0        
C1        C        0.0        0.796297        0.71363        0        
C1        C        0.0625        0.796297        0.71363        0        
C1        C        0.125        0.796297        0.71363        0        
C1        C        0.1875        0.796297        0.71363        0        
C1        C        0.25        0.796297        0.71363        0        
C1        C        0.3125        0.796297        0.71363        0        
C1        C        0.375        0.796297        0.71363        0        
C1        C        0.4375        0.796297        0.71363        0        
C1        C        0.5        0.796297        0.71363        0        
C1        C        0.5625        0.796297        0.71363        0        
C1        C        0.625        0.796297        0.71363        0        
C1        C        0.6875        0.796297        0.71363        0        
C1        C        0.75        0.796297        0.71363        0        
C1        C        0.8125        0.796297        0.71363        0        
C1        C        0.875        0.796297        0.71363        0        
C1        C        0.9375        0.796297        0.71363        0        
C2        C        0.03125        0.851852        0.71363        0        
C2        C        0.09375        0.851852        0.71363        0        
C2        C        0.15625        0.851852        0.71363        0        
C2        C        0.21875        0.851852        0.71363        0        
C2        C        0.28125        0.851852        0.71363        0        
C2        C        0.34375        0.851852        0.71363        0        
C2        C        0.40625        0.851852        0.71363        0        
C2        C        0.46875        0.851852        0.71363        0        
C2        C        0.53125        0.851852        0.71363        0        
C2        C        0.59375        0.851852        0.71363        0        
C2        C        0.65625        0.851852        0.71363        0        
C2        C        0.71875        0.851852        0.71363        0        
C2        C        0.78125        0.851852        0.71363        0        
C2        C        0.84375        0.851852        0.71363        0        
C2        C        0.9062500000000001        0.851852        0.71363        0        
C2        C        0.9687500000000001        0.851852        0.71363        0        
C_FG        C        0.0        0.87037        0.71363        0.08        
C3        C        0.0625        0.87037        0.71363        0        
C3        C        0.125        0.87037        0.71363        0        
C3        C        0.1875        0.87037        0.71363        0        
C_FG        C        0.25        0.87037        0.71363        0.08        
C3        C        0.3125        0.87037        0.71363        0        
C3        C        0.375        0.87037        0.71363        0        
C3        C        0.4375        0.87037        0.71363        0        
C_FG        C        0.5        0.87037        0.71363        0.08        
C3        C        0.5625        0.87037        0.71363        0        
C3        C        0.625        0.87037        0.71363        0        
C3        C        0.6875        0.87037        0.71363        0        
C_FG        C        0.75        0.87037        0.71363        0.08        
C3        C        0.8125        0.87037        0.71363        0        
C3        C        0.875        0.87037        0.71363        0        
C3        C        0.9375        0.87037        0.71363        0        
C4        C        0.03125        0.814814        0.71363        0        
C4        C        0.09375        0.814814        0.71363        0        
C4        C        0.15625        0.814814        0.71363        0        
C4        C        0.21875        0.814814        0.71363        0        
C4        C        0.28125        0.814814        0.71363        0        
C4        C        0.34375        0.814814        0.71363        0        
C4        C        0.40625        0.814814        0.71363        0        
C4        C        0.46875        0.814814        0.71363        0        
C4        C        0.53125        0.814814        0.71363        0        
C4        C        0.59375        0.814814        0.71363        0        
C4        C        0.65625        0.814814        0.71363        0        
C4        C        0.71875        0.814814        0.71363        0        
C4        C        0.78125        0.814814        0.71363        0        
C4        C        0.84375        0.814814        0.71363        0        
C4        C        0.9062500000000001        0.814814        0.71363        0        
C4        C        0.9687500000000001        0.814814        0.71363        0        
C1        C        0.0        0.907408        0.71363        0        
C1        C        0.0625        0.907408        0.71363        0        
C1        C        0.125        0.907408        0.71363        0        
C1        C        0.1875        0.907408        0.71363        0        
C1        C        0.25        0.907408        0.71363        0        
C1        C        0.3125        0.907408        0.71363        0        
C1        C        0.375        0.907408        0.71363        0        
C1        C        0.4375        0.907408        0.71363        0        
C1        C        0.5        0.907408        0.71363        0        
C1        C        0.5625        0.907408        0.71363        0        
C1        C        0.625        0.907408        0.71363        0        
C1        C        0.6875        0.907408        0.71363        0        
C1        C        0.75        0.907408        0.71363        0        
C1        C        0.8125        0.907408        0.71363        0        
C1        C        0.875        0.907408        0.71363        0        
C1        C        0.9375        0.907408        0.71363        0        
C2        C        0.03125        0.962963        0.71363        0        
C2        C        0.09375        0.962963        0.71363        0        
C2        C        0.15625        0.962963        0.71363        0        
C2        C        0.21875        0.962963        0.71363        0        
C2        C        0.28125        0.962963        0.71363        0        
C2        C        0.34375        0.962963        0.71363        0        
C2        C        0.40625        0.962963        0.71363        0        
C2        C        0.46875        0.962963        0.71363        0        
C2        C        0.53125        0.962963        0.71363        0        
C2        C        0.59375        0.962963        0.71363        0        
C2        C        0.65625        0.962963        0.71363        0        
C2        C        0.71875        0.962963        0.71363        0        
C2        C        0.78125        0.962963        0.71363        0        
C2        C        0.84375        0.962963        0.71363        0        
C2        C        0.9062500000000001        0.962963        0.71363        0        
C2        C        0.9687500000000001        0.962963        0.71363        0        
C3        C        0.0        0.9814809999999999        0.71363        0        
C3        C        0.0625        0.9814809999999999        0.71363        0        
C3        C        0.125        0.9814809999999999        0.71363        0        
C3        C        0.1875        0.9814809999999999        0.71363        0        
C3        C        0.25        0.9814809999999999        0.71363        0        
C3        C        0.3125        0.9814809999999999        0.71363        0        
C3        C        0.375        0.9814809999999999        0.71363        0        
C3        C        0.4375        0.9814809999999999        0.71363        0        
C3        C        0.5        0.9814809999999999        0.71363        0        
C3        C        0.5625        0.9814809999999999        0.71363        0        
C3        C        0.625        0.9814809999999999        0.71363        0        
C3        C        0.6875        0.9814809999999999        0.71363        0        
C3        C        0.75        0.9814809999999999        0.71363        0        
C3        C        0.8125        0.9814809999999999        0.71363        0        
C3        C        0.875        0.9814809999999999        0.71363        0        
C3        C        0.9375        0.9814809999999999        0.71363        0        
C4        C        0.03125        0.925925        0.71363        0        
C4        C        0.09375        0.925925        0.71363        0        
C4        C        0.15625        0.925925        0.71363        0        
C4        C        0.21875        0.925925        0.71363        0        
C4        C        0.28125        0.925925        0.71363        0        
C4        C        0.34375        0.925925        0.71363        0        
C4        C        0.40625        0.925925        0.71363        0        
C4        C        0.46875        0.925925        0.71363        0        
C4        C        0.53125        0.925925        0.71363        0        
C4        C        0.59375        0.925925        0.71363        0        
C4        C        0.65625        0.925925        0.71363        0        
C4        C        0.71875        0.925925        0.71363        0        
C4        C        0.78125        0.925925        0.71363        0        
C4        C        0.84375        0.925925        0.71363        0        
C4        C        0.9062500000000001        0.925925        0.71363        0        
C4        C        0.9687500000000001        0.925925        0.71363        0        
C1        C        0.0        0.018519        0.764932        0        
C2        C        0.03125        0.074075        0.764932        0        
C3        C        0.0        0.092592        0.764932        0        
C4        C        0.03125        0.037037        0.764932        0        
C1        C        0.0        0.12963        0.764932        0        
C2        C        0.03125        0.185185        0.764932        0        
C3        C        0.0        0.203703        0.764932        0        
C4        C        0.03125        0.148148        0.764932        0        
C1        C        0.0        0.24074099999999998        0.764932        0        
C2        C        0.03125        0.296297        0.764932        0        
C3        C        0.0        0.314815        0.764932        0        
C4        C        0.03125        0.259259        0.764932        0        
C1        C        0.0        0.351852        0.764932        0        
C2        C        0.03125        0.407408        0.764932        0        
C3        C        0.0        0.42592500000000005        0.764932        0        
C4        C        0.03125        0.37037        0.764932        0        
C1        C        0.0        0.46296300000000007        0.764932        0        
C2        C        0.03125        0.518519        0.764932        0        
C3        C        0.0        0.537037        0.764932        0        
C4        C        0.03125        0.481481        0.764932        0        
C1        C        0.0        0.574075        0.764932        0        
C2        C        0.03125        0.62963        0.764932        0        
C3        C        0.0        0.648148        0.764932        0        
C4        C        0.03125        0.592592        0.764932        0        
C1        C        0.0625        0.018519        0.764932        0        
C2        C        0.09375        0.074075        0.764932        0        
C3        C        0.0625        0.092592        0.764932        0        
C4        C        0.09375        0.037037        0.764932        0        
C1        C        0.0625        0.12963        0.764932        0        
C2        C        0.09375        0.185185        0.764932        0        
C3        C        0.0625        0.203703        0.764932        0        
C4        C        0.09375        0.148148        0.764932        0        
C1        C        0.0625        0.24074099999999998        0.764932        0        
C2        C        0.09375        0.296297        0.764932        0        
C3        C        0.0625        0.314815        0.764932        0        
C4        C        0.09375        0.259259        0.764932        0        
C1        C        0.0625        0.351852        0.764932        0        
C2        C        0.09375        0.407408        0.764932        0        
C3        C        0.0625        0.42592500000000005        0.764932        0        
C4        C        0.09375        0.37037        0.764932        0        
C1        C        0.0625        0.46296300000000007        0.764932        0        
C2        C        0.09375        0.518519        0.764932        0        
C3        C        0.0625        0.537037        0.764932        0        
C4        C        0.09375        0.481481        0.764932        0        
C1        C        0.0625        0.574075        0.764932        0        
C2        C        0.09375        0.62963        0.764932        0        
C3        C        0.0625        0.648148        0.764932        0        
C4        C        0.09375        0.592592        0.764932        0        
C1        C        0.125        0.018519        0.764932        0        
C2        C        0.15625        0.074075        0.764932        0        
C3        C        0.125        0.092592        0.764932        0        
C4        C        0.15625        0.037037        0.764932        0        
C1        C        0.125        0.12963        0.764932        0        
C2        C        0.15625        0.185185        0.764932        0        
C3        C        0.125        0.203703        0.764932        0        
C4        C        0.15625        0.148148        0.764932        0        
C1        C        0.125        0.24074099999999998        0.764932        0        
C2        C        0.15625        0.296297        0.764932        0        
C3        C        0.125        0.314815        0.764932        0        
C4        C        0.15625        0.259259        0.764932        0        
C1        C        0.125        0.351852        0.764932        0        
C2        C        0.15625        0.407408        0.764932        0        
C3        C        0.125        0.42592500000000005        0.764932        0        
C4        C        0.15625        0.37037        0.764932        0        
C1        C        0.125        0.46296300000000007        0.764932        0        
C2        C        0.15625        0.518519        0.764932        0        
C3        C        0.125        0.537037        0.764932        0        
C4        C        0.15625        0.481481        0.764932        0        
C1        C        0.125        0.574075        0.764932        0        
C2        C        0.15625        0.62963        0.764932        0        
C3        C        0.125        0.648148        0.764932        0        
C4        C        0.15625        0.592592        0.764932        0        
C1        C        0.1875        0.018519        0.764932        0        
C2        C        0.21875        0.074075        0.764932        0        
C3        C        0.1875        0.092592        0.764932        0        
C4        C        0.21875        0.037037        0.764932        0        
C1        C        0.1875        0.12963        0.764932        0        
C2        C        0.21875        0.185185        0.764932        0        
C3        C        0.1875        0.203703        0.764932        0        
C4        C        0.21875        0.148148        0.764932        0        
C1        C        0.1875        0.24074099999999998        0.764932        0        
C2        C        0.21875        0.296297        0.764932        0        
C3        C        0.1875        0.314815        0.764932        0        
C4        C        0.21875        0.259259        0.764932        0        
C1        C        0.1875        0.351852        0.764932        0        
C2        C        0.21875        0.407408        0.764932        0        
C3        C        0.1875        0.42592500000000005        0.764932        0        
C4        C        0.21875        0.37037        0.764932        0        
C1        C        0.1875        0.46296300000000007        0.764932        0        
C2        C        0.21875        0.518519        0.764932        0        
C3        C        0.1875        0.537037        0.764932        0        
C4        C        0.21875        0.481481        0.764932        0        
C1        C        0.1875        0.574075        0.764932        0        
C2        C        0.21875        0.62963        0.764932        0        
C3        C        0.1875        0.648148        0.764932        0        
C4        C        0.21875        0.592592        0.764932        0        
C1        C        0.25        0.018519        0.764932        0        
C2        C        0.28125        0.074075        0.764932        0        
C3        C        0.25        0.092592        0.764932        0        
C4        C        0.28125        0.037037        0.764932        0        
C1        C        0.25        0.12963        0.764932        0        
C2        C        0.28125        0.185185        0.764932        0        
C3        C        0.25        0.203703        0.764932        0        
C4        C        0.28125        0.148148        0.764932        0        
C1        C        0.25        0.24074099999999998        0.764932        0        
C2        C        0.28125        0.296297        0.764932        0        
C3        C        0.25        0.314815        0.764932        0        
C4        C        0.28125        0.259259        0.764932        0        
C1        C        0.25        0.351852        0.764932        0        
C2        C        0.28125        0.407408        0.764932        0        
C3        C        0.25        0.42592500000000005        0.764932        0        
C4        C        0.28125        0.37037        0.764932        0        
C1        C        0.25        0.46296300000000007        0.764932        0        
C2        C        0.28125        0.518519        0.764932        0        
C3        C        0.25        0.537037        0.764932        0        
C4        C        0.28125        0.481481        0.764932        0        
C1        C        0.25        0.574075        0.764932        0        
C2        C        0.28125        0.62963        0.764932        0        
C3        C        0.25        0.648148        0.764932        0        
C4        C        0.28125        0.592592        0.764932        0        
C1        C        0.3125        0.018519        0.764932        0        
C2        C        0.34375        0.074075        0.764932        0        
C3        C        0.3125        0.092592        0.764932        0        
C4        C        0.34375        0.037037        0.764932        0        
C1        C        0.3125        0.12963        0.764932        0        
C2        C        0.34375        0.185185        0.764932        0        
C3        C        0.3125        0.203703        0.764932        0        
C4        C        0.34375        0.148148        0.764932        0        
C1        C        0.3125        0.24074099999999998        0.764932        0        
C2        C        0.34375        0.296297        0.764932        0        
C3        C        0.3125        0.314815        0.764932        0        
C4        C        0.34375        0.259259        0.764932        0        
C1        C        0.3125        0.351852        0.764932        0        
C2        C        0.34375        0.407408        0.764932        0        
C3        C        0.3125        0.42592500000000005        0.764932        0        
C4        C        0.34375        0.37037        0.764932        0        
C1        C        0.3125        0.46296300000000007        0.764932        0        
C2        C        0.34375        0.518519        0.764932        0        
C3        C        0.3125        0.537037        0.764932        0        
C4        C        0.34375        0.481481        0.764932        0        
C1        C        0.3125        0.574075        0.764932        0        
C2        C        0.34375        0.62963        0.764932        0        
C3        C        0.3125        0.648148        0.764932        0        
C4        C        0.34375        0.592592        0.764932        0        
C1        C        0.375        0.018519        0.764932        0        
C2        C        0.40625        0.074075        0.764932        0        
C3        C        0.375        0.092592        0.764932        0        
C4        C        0.40625        0.037037        0.764932        0        
C1        C        0.375        0.12963        0.764932        0        
C2        C        0.40625        0.185185        0.764932        0        
C3        C        0.375        0.203703        0.764932        0        
C4        C        0.40625        0.148148        0.764932        0        
C1        C        0.375        0.24074099999999998        0.764932        0        
C2        C        0.40625        0.296297        0.764932        0        
C3        C        0.375        0.314815        0.764932        0        
C4        C        0.40625        0.259259        0.764932        0        
C1        C        0.375        0.351852        0.764932        0        
C2        C        0.40625        0.407408        0.764932        0        
C3        C        0.375        0.42592500000000005        0.764932        0        
C4        C        0.40625        0.37037        0.764932        0        
C1        C        0.375        0.46296300000000007        0.764932        0        
C2        C        0.40625        0.518519        0.764932        0        
C3        C        0.375        0.537037        0.764932        0        
C4        C        0.40625        0.481481        0.764932        0        
C1        C        0.375        0.574075        0.764932        0        
C2        C        0.40625        0.62963        0.764932        0        
C3        C        0.375        0.648148        0.764932        0        
C4        C        0.40625        0.592592        0.764932        0        
C1        C        0.4375        0.018519        0.764932        0        
C2        C        0.46875        0.074075        0.764932        0        
C3        C        0.4375        0.092592        0.764932        0        
C4        C        0.46875        0.037037        0.764932        0        
C1        C        0.4375        0.12963        0.764932        0        
C2        C        0.46875        0.185185        0.764932        0        
C3        C        0.4375        0.203703        0.764932        0        
C4        C        0.46875        0.148148        0.764932        0        
C1        C        0.4375        0.24074099999999998        0.764932        0        
C2        C        0.46875        0.296297        0.764932        0        
C3        C        0.4375        0.314815        0.764932        0        
C4        C        0.46875        0.259259        0.764932        0        
C1        C        0.4375        0.351852        0.764932        0        
C2        C        0.46875        0.407408        0.764932        0        
C3        C        0.4375        0.42592500000000005        0.764932        0        
C4        C        0.46875        0.37037        0.764932        0        
C1        C        0.4375        0.46296300000000007        0.764932        0        
C2        C        0.46875        0.518519        0.764932        0        
C3        C        0.4375        0.537037        0.764932        0        
C4        C        0.46875        0.481481        0.764932        0        
C1        C        0.4375        0.574075        0.764932        0        
C2        C        0.46875        0.62963        0.764932        0        
C3        C        0.4375        0.648148        0.764932        0        
C4        C        0.46875        0.592592        0.764932        0        
C1        C        0.5        0.018519        0.764932        0        
C2        C        0.53125        0.074075        0.764932        0        
C3        C        0.5        0.092592        0.764932        0        
C4        C        0.53125        0.037037        0.764932        0        
C1        C        0.5        0.12963        0.764932        0        
C2        C        0.53125        0.185185        0.764932        0        
C3        C        0.5        0.203703        0.764932        0        
C4        C        0.53125        0.148148        0.764932        0        
C1        C        0.5        0.24074099999999998        0.764932        0        
C2        C        0.53125        0.296297        0.764932        0        
C3        C        0.5        0.314815        0.764932        0        
C4        C        0.53125        0.259259        0.764932        0        
C1        C        0.5        0.351852        0.764932        0        
C2        C        0.53125        0.407408        0.764932        0        
C3        C        0.5        0.42592500000000005        0.764932        0        
C4        C        0.53125        0.37037        0.764932        0        
C1        C        0.5        0.46296300000000007        0.764932        0        
C2        C        0.53125        0.518519        0.764932        0        
C3        C        0.5        0.537037        0.764932        0        
C4        C        0.53125        0.481481        0.764932        0        
C1        C        0.5        0.574075        0.764932        0        
C2        C        0.53125        0.62963        0.764932        0        
C3        C        0.5        0.648148        0.764932        0        
C4        C        0.53125        0.592592        0.764932        0        
C1        C        0.5625        0.018519        0.764932        0        
C2        C        0.59375        0.074075        0.764932        0        
C3        C        0.5625        0.092592        0.764932        0        
C4        C        0.59375        0.037037        0.764932        0        
C1        C        0.5625        0.12963        0.764932        0        
C2        C        0.59375        0.185185        0.764932        0        
C3        C        0.5625        0.203703        0.764932        0        
C4        C        0.59375        0.148148        0.764932        0        
C1        C        0.5625        0.24074099999999998        0.764932        0        
C2        C        0.59375        0.296297        0.764932        0        
C3        C        0.5625        0.314815        0.764932        0        
C4        C        0.59375        0.259259        0.764932        0        
C1        C        0.5625        0.351852        0.764932        0        
C2        C        0.59375        0.407408        0.764932        0        
C3        C        0.5625        0.42592500000000005        0.764932        0        
C4        C        0.59375        0.37037        0.764932        0        
C1        C        0.5625        0.46296300000000007        0.764932        0        
C2        C        0.59375        0.518519        0.764932        0        
C3        C        0.5625        0.537037        0.764932        0        
C4        C        0.59375        0.481481        0.764932        0        
C1        C        0.5625        0.574075        0.764932        0        
C2        C        0.59375        0.62963        0.764932        0        
C3        C        0.5625        0.648148        0.764932        0        
C4        C        0.59375        0.592592        0.764932        0        
C1        C        0.625        0.018519        0.764932        0        
C2        C        0.65625        0.074075        0.764932        0        
C3        C        0.625        0.092592        0.764932        0        
C4        C        0.65625        0.037037        0.764932        0        
C1        C        0.625        0.12963        0.764932        0        
C2        C        0.65625        0.185185        0.764932        0        
C3        C        0.625        0.203703        0.764932        0        
C4        C        0.65625        0.148148        0.764932        0        
C1        C        0.625        0.24074099999999998        0.764932        0        
C2        C        0.65625        0.296297        0.764932        0        
C3        C        0.625        0.314815        0.764932        0        
C4        C        0.65625        0.259259        0.764932        0        
C1        C        0.625        0.351852        0.764932        0        
C2        C        0.65625        0.407408        0.764932        0        
C3        C        0.625        0.42592500000000005        0.764932        0        
C4        C        0.65625        0.37037        0.764932        0        
C1        C        0.625        0.46296300000000007        0.764932        0        
C2        C        0.65625        0.518519        0.764932        0        
C3        C        0.625        0.537037        0.764932        0        
C4        C        0.65625        0.481481        0.764932        0        
C1        C        0.625        0.574075        0.764932        0        
C2        C        0.65625        0.62963        0.764932        0        
C3        C        0.625        0.648148        0.764932        0        
C4        C        0.65625        0.592592        0.764932        0        
C1        C        0.6875        0.018519        0.764932        0        
C2        C        0.71875        0.074075        0.764932        0        
C3        C        0.6875        0.092592        0.764932        0        
C4        C        0.71875        0.037037        0.764932        0        
C1        C        0.6875        0.12963        0.764932        0        
C2        C        0.71875        0.185185        0.764932        0        
C3        C        0.6875        0.203703        0.764932        0        
C4        C        0.71875        0.148148        0.764932        0        
C1        C        0.6875        0.24074099999999998        0.764932        0        
C2        C        0.71875        0.296297        0.764932        0        
C3        C        0.6875        0.314815        0.764932        0        
C4        C        0.71875        0.259259        0.764932        0        
C1        C        0.6875        0.351852        0.764932        0        
C2        C        0.71875        0.407408        0.764932        0        
C3        C        0.6875        0.42592500000000005        0.764932        0        
C4        C        0.71875        0.37037        0.764932        0        
C1        C        0.6875        0.46296300000000007        0.764932        0        
C2        C        0.71875        0.518519        0.764932        0        
C3        C        0.6875        0.537037        0.764932        0        
C4        C        0.71875        0.481481        0.764932        0        
C1        C        0.6875        0.574075        0.764932        0        
C2        C        0.71875        0.62963        0.764932        0        
C3        C        0.6875        0.648148        0.764932        0        
C4        C        0.71875        0.592592        0.764932        0        
C1        C        0.75        0.018519        0.764932        0        
C2        C        0.78125        0.074075        0.764932        0        
C3        C        0.75        0.092592        0.764932        0        
C4        C        0.78125        0.037037        0.764932        0        
C1        C        0.75        0.12963        0.764932        0        
C2        C        0.78125        0.185185        0.764932        0        
C3        C        0.75        0.203703        0.764932        0        
C4        C        0.78125        0.148148        0.764932        0        
C1        C        0.75        0.24074099999999998        0.764932        0        
C2        C        0.78125        0.296297        0.764932        0        
C3        C        0.75        0.314815        0.764932        0        
C4        C        0.78125        0.259259        0.764932        0        
C1        C        0.75        0.351852        0.764932        0        
C2        C        0.78125        0.407408        0.764932        0        
C3        C        0.75        0.42592500000000005        0.764932        0        
C4        C        0.78125        0.37037        0.764932        0        
C1        C        0.75        0.46296300000000007        0.764932        0        
C2        C        0.78125        0.518519        0.764932        0        
C3        C        0.75        0.537037        0.764932        0        
C4        C        0.78125        0.481481        0.764932        0        
C1        C        0.75        0.574075        0.764932        0        
C2        C        0.78125        0.62963        0.764932        0        
C3        C        0.75        0.648148        0.764932        0        
C4        C        0.78125        0.592592        0.764932        0        
C1        C        0.8125        0.018519        0.764932        0        
C2        C        0.84375        0.074075        0.764932        0        
C3        C        0.8125        0.092592        0.764932        0        
C4        C        0.84375        0.037037        0.764932        0        
C1        C        0.8125        0.12963        0.764932        0        
C2        C        0.84375        0.185185        0.764932        0        
C3        C        0.8125        0.203703        0.764932        0        
C4        C        0.84375        0.148148        0.764932        0        
C1        C        0.8125        0.24074099999999998        0.764932        0        
C2        C        0.84375        0.296297        0.764932        0        
C3        C        0.8125        0.314815        0.764932        0        
C4        C        0.84375        0.259259        0.764932        0        
C1        C        0.8125        0.351852        0.764932        0        
C2        C        0.84375        0.407408        0.764932        0        
C3        C        0.8125        0.42592500000000005        0.764932        0        
C4        C        0.84375        0.37037        0.764932        0        
C1        C        0.8125        0.46296300000000007        0.764932        0        
C2        C        0.84375        0.518519        0.764932        0        
C3        C        0.8125        0.537037        0.764932        0        
C4        C        0.84375        0.481481        0.764932        0        
C1        C        0.8125        0.574075        0.764932        0        
C2        C        0.84375        0.62963        0.764932        0        
C3        C        0.8125        0.648148        0.764932        0        
C4        C        0.84375        0.592592        0.764932        0        
C1        C        0.875        0.018519        0.764932        0        
C2        C        0.9062500000000001        0.074075        0.764932        0        
C3        C        0.875        0.092592        0.764932        0        
C4        C        0.9062500000000001        0.037037        0.764932        0        
C1        C        0.875        0.12963        0.764932        0        
C2        C        0.9062500000000001        0.185185        0.764932        0        
C3        C        0.875        0.203703        0.764932        0        
C4        C        0.9062500000000001        0.148148        0.764932        0        
C1        C        0.875        0.24074099999999998        0.764932        0        
C2        C        0.9062500000000001        0.296297        0.764932        0        
C3        C        0.875        0.314815        0.764932        0        
C4        C        0.9062500000000001        0.259259        0.764932        0        
C1        C        0.875        0.351852        0.764932        0        
C2        C        0.9062500000000001        0.407408        0.764932        0        
C3        C        0.875        0.42592500000000005        0.764932        0        
C4        C        0.9062500000000001        0.37037        0.764932        0        
C1        C        0.875        0.46296300000000007        0.764932        0        
C2        C        0.9062500000000001        0.518519        0.764932        0        
C3        C        0.875        0.537037        0.764932        0        
C4        C        0.9062500000000001        0.481481        0.764932        0        
C1        C        0.875        0.574075        0.764932        0        
C2        C        0.9062500000000001        0.62963        0.764932        0        
C3        C        0.875        0.648148        0.764932        0        
C4        C        0.9062500000000001        0.592592        0.764932        0        
C1        C        0.9375        0.018519        0.764932        0        
C2        C        0.9687500000000001        0.074075        0.764932        0        
C3        C        0.9375        0.092592        0.764932        0        
C4        C        0.9687500000000001        0.037037        0.764932        0        
C1        C        0.9375        0.12963        0.764932        0        
C2        C        0.9687500000000001        0.185185        0.764932        0        
C3        C        0.9375        0.203703        0.764932        0        
C4        C        0.9687500000000001        0.148148        0.764932        0        
C1        C        0.9375        0.24074099999999998        0.764932        0        
C2        C        0.9687500000000001        0.296297        0.764932        0        
C3        C        0.9375        0.314815        0.764932        0        
C4        C        0.9687500000000001        0.259259        0.764932        0        
C1        C        0.9375        0.351852        0.764932        0        
C2        C        0.9687500000000001        0.407408        0.764932        0        
C3        C        0.9375        0.42592500000000005        0.764932        0        
C4        C        0.9687500000000001        0.37037        0.764932        0        
C1        C        0.9375        0.46296300000000007        0.764932        0        
C2        C        0.9687500000000001        0.518519        0.764932        0        
C3        C        0.9375        0.537037        0.764932        0        
C4        C        0.9687500000000001        0.481481        0.764932        0        
C1        C        0.9375        0.574075        0.764932        0        
C2        C        0.9687500000000001        0.62963        0.764932        0        
C3        C        0.9375        0.648148        0.764932        0        
C4        C        0.9687500000000001        0.592592        0.764932        0        
C1        C        0.0        0.685186        0.764932        0        
C1        C        0.0625        0.685186        0.764932        0        
C1        C        0.125        0.685186        0.764932        0        
C1        C        0.1875        0.685186        0.764932        0        
C1        C        0.25        0.685186        0.764932        0        
C1        C        0.3125        0.685186        0.764932        0        
C1        C        0.375        0.685186        0.764932        0        
C1        C        0.4375        0.685186        0.764932        0        
C1        C        0.5        0.685186        0.764932        0        
C1        C        0.5625        0.685186        0.764932        0        
C1        C        0.625        0.685186        0.764932        0        
C1        C        0.6875        0.685186        0.764932        0        
C1        C        0.75        0.685186        0.764932        0        
C1        C        0.8125        0.685186        0.764932        0        
C1        C        0.875        0.685186        0.764932        0        
C1        C        0.9375        0.685186        0.764932        0        
C2        C        0.03125        0.740741        0.764932        0        
C2        C        0.09375        0.740741        0.764932        0        
C2        C        0.15625        0.740741        0.764932        0        
C2        C        0.21875        0.740741        0.764932        0        
C2        C        0.28125        0.740741        0.764932        0        
C2        C        0.34375        0.740741        0.764932        0        
C2        C        0.40625        0.740741        0.764932        0        
C2        C        0.46875        0.740741        0.764932        0        
C2        C        0.53125        0.740741        0.764932        0        
C2        C        0.59375        0.740741        0.764932        0        
C2        C        0.65625        0.740741        0.764932        0        
C2        C        0.71875        0.740741        0.764932        0        
C2        C        0.78125        0.740741        0.764932        0        
C2        C        0.84375        0.740741        0.764932        0        
C2        C        0.9062500000000001        0.740741        0.764932        0        
C2        C        0.9687500000000001        0.740741        0.764932        0        
C3        C        0.0        0.759259        0.764932        0        
C3        C        0.0625        0.759259        0.764932        0        
C3        C        0.125        0.759259        0.764932        0        
C3        C        0.1875        0.759259        0.764932        0        
C3        C        0.25        0.759259        0.764932        0        
C3        C        0.3125        0.759259        0.764932        0        
C3        C        0.375        0.759259        0.764932        0        
C3        C        0.4375        0.759259        0.764932        0        
C3        C        0.5        0.759259        0.764932        0        
C3        C        0.5625        0.759259        0.764932        0        
C3        C        0.625        0.759259        0.764932        0        
C3        C        0.6875        0.759259        0.764932        0        
C3        C        0.75        0.759259        0.764932        0        
C3        C        0.8125        0.759259        0.764932        0        
C3        C        0.875        0.759259        0.764932        0        
C3        C        0.9375        0.759259        0.764932        0        
C4        C        0.03125        0.703703        0.764932        0        
C4        C        0.09375        0.703703        0.764932        0        
C4        C        0.15625        0.703703        0.764932        0        
C4        C        0.21875        0.703703        0.764932        0        
C4        C        0.28125        0.703703        0.764932        0        
C4        C        0.34375        0.703703        0.764932        0        
C4        C        0.40625        0.703703        0.764932        0        
C4        C        0.46875        0.703703        0.764932        0        
C4        C        0.53125        0.703703        0.764932        0        
C4        C        0.59375        0.703703        0.764932        0        
C4        C        0.65625        0.703703        0.764932        0        
C4        C        0.71875        0.703703        0.764932        0        
C4        C        0.78125        0.703703        0.764932        0        
C4        C        0.84375        0.703703        0.764932        0        
C4        C        0.9062500000000001        0.703703        0.764932        0        
C4        C        0.9687500000000001        0.703703        0.764932        0        
C1        C        0.0        0.796297        0.764932        0        
C1        C        0.0625        0.796297        0.764932        0        
C1        C        0.125        0.796297        0.764932        0        
C1        C        0.1875        0.796297        0.764932        0        
C1        C        0.25        0.796297        0.764932        0        
C1        C        0.3125        0.796297        0.764932        0        
C1        C        0.375        0.796297        0.764932        0        
C1        C        0.4375        0.796297        0.764932        0        
C1        C        0.5        0.796297        0.764932        0        
C1        C        0.5625        0.796297        0.764932        0        
C1        C        0.625        0.796297        0.764932        0        
C1        C        0.6875        0.796297        0.764932        0        
C1        C        0.75        0.796297        0.764932        0        
C1        C        0.8125        0.796297        0.764932        0        
C1        C        0.875        0.796297        0.764932        0        
C1        C        0.9375        0.796297        0.764932        0        
C2        C        0.03125        0.851852        0.764932        0        
C2        C        0.09375        0.851852        0.764932        0        
C2        C        0.15625        0.851852        0.764932        0        
C2        C        0.21875        0.851852        0.764932        0        
C2        C        0.28125        0.851852        0.764932        0        
C2        C        0.34375        0.851852        0.764932        0        
C2        C        0.40625        0.851852        0.764932        0        
C2        C        0.46875        0.851852        0.764932        0        
C2        C        0.53125        0.851852        0.764932        0        
C2        C        0.59375        0.851852        0.764932        0        
C2        C        0.65625        0.851852        0.764932        0        
C2        C        0.71875        0.851852        0.764932        0        
C2        C        0.78125        0.851852        0.764932        0        
C2        C        0.84375        0.851852        0.764932        0        
C2        C        0.9062500000000001        0.851852        0.764932        0        
C2        C        0.9687500000000001        0.851852        0.764932        0        
C3        C        0.0        0.87037        0.764932        0        
C3        C        0.0625        0.87037        0.764932        0        
C3        C        0.125        0.87037        0.764932        0        
C3        C        0.1875        0.87037        0.764932        0        
C3        C        0.25        0.87037        0.764932        0        
C3        C        0.3125        0.87037        0.764932        0        
C3        C        0.375        0.87037        0.764932        0        
C3        C        0.4375        0.87037        0.764932        0        
C3        C        0.5        0.87037        0.764932        0        
C3        C        0.5625        0.87037        0.764932        0        
C3        C        0.625        0.87037        0.764932        0        
C3        C        0.6875        0.87037        0.764932        0        
C3        C        0.75        0.87037        0.764932        0        
C3        C        0.8125        0.87037        0.764932        0        
C3        C        0.875        0.87037        0.764932        0        
C3        C        0.9375        0.87037        0.764932        0        
C4        C        0.03125        0.814814        0.764932        0        
C4        C        0.09375        0.814814        0.764932        0        
C4        C        0.15625        0.814814        0.764932        0        
C4        C        0.21875        0.814814        0.764932        0        
C4        C        0.28125        0.814814        0.764932        0        
C4        C        0.34375        0.814814        0.764932        0        
C4        C        0.40625        0.814814        0.764932        0        
C4        C        0.46875        0.814814        0.764932        0        
C4        C        0.53125        0.814814        0.764932        0        
C4        C        0.59375        0.814814        0.764932        0        
C4        C        0.65625        0.814814        0.764932        0        
C4        C        0.71875        0.814814        0.764932        0        
C4        C        0.78125        0.814814        0.764932        0        
C4        C        0.84375        0.814814        0.764932        0        
C4        C        0.9062500000000001        0.814814        0.764932        0        
C4        C        0.9687500000000001        0.814814        0.764932        0        
C1        C        0.0        0.907408        0.764932        0        
C1        C        0.0625        0.907408        0.764932        0        
C1        C        0.125        0.907408        0.764932        0        
C1        C        0.1875        0.907408        0.764932        0        
C1        C        0.25        0.907408        0.764932        0        
C1        C        0.3125        0.907408        0.764932        0        
C1        C        0.375        0.907408        0.764932        0        
C1        C        0.4375        0.907408        0.764932        0        
C1        C        0.5        0.907408        0.764932        0        
C1        C        0.5625        0.907408        0.764932        0        
C1        C        0.625        0.907408        0.764932        0        
C1        C        0.6875        0.907408        0.764932        0        
C1        C        0.75        0.907408        0.764932        0        
C1        C        0.8125        0.907408        0.764932        0        
C1        C        0.875        0.907408        0.764932        0        
C1        C        0.9375        0.907408        0.764932        0        
C2        C        0.03125        0.962963        0.764932        0        
C2        C        0.09375        0.962963        0.764932        0        
C2        C        0.15625        0.962963        0.764932        0        
C2        C        0.21875        0.962963        0.764932        0        
C2        C        0.28125        0.962963        0.764932        0        
C2        C        0.34375        0.962963        0.764932        0        
C2        C        0.40625        0.962963        0.764932        0        
C2        C        0.46875        0.962963        0.764932        0        
C2        C        0.53125        0.962963        0.764932        0        
C2        C        0.59375        0.962963        0.764932        0        
C2        C        0.65625        0.962963        0.764932        0        
C2        C        0.71875        0.962963        0.764932        0        
C2        C        0.78125        0.962963        0.764932        0        
C2        C        0.84375        0.962963        0.764932        0        
C2        C        0.9062500000000001        0.962963        0.764932        0        
C2        C        0.9687500000000001        0.962963        0.764932        0        
C3        C        0.0        0.9814809999999999        0.764932        0        
C3        C        0.0625        0.9814809999999999        0.764932        0        
C3        C        0.125        0.9814809999999999        0.764932        0        
C3        C        0.1875        0.9814809999999999        0.764932        0        
C3        C        0.25        0.9814809999999999        0.764932        0        
C3        C        0.3125        0.9814809999999999        0.764932        0        
C3        C        0.375        0.9814809999999999        0.764932        0        
C3        C        0.4375        0.9814809999999999        0.764932        0        
C3        C        0.5        0.9814809999999999        0.764932        0        
C3        C        0.5625        0.9814809999999999        0.764932        0        
C3        C        0.625        0.9814809999999999        0.764932        0        
C3        C        0.6875        0.9814809999999999        0.764932        0        
C3        C        0.75        0.9814809999999999        0.764932        0        
C3        C        0.8125        0.9814809999999999        0.764932        0        
C3        C        0.875        0.9814809999999999        0.764932        0        
C3        C        0.9375        0.9814809999999999        0.764932        0        
C4        C        0.03125        0.925925        0.764932        0        
C4        C        0.09375        0.925925        0.764932        0        
C4        C        0.15625        0.925925        0.764932        0        
C4        C        0.21875        0.925925        0.764932        0        
C4        C        0.28125        0.925925        0.764932        0        
C4        C        0.34375        0.925925        0.764932        0        
C4        C        0.40625        0.925925        0.764932        0        
C4        C        0.46875        0.925925        0.764932        0        
C4        C        0.53125        0.925925        0.764932        0        
C4        C        0.59375        0.925925        0.764932        0        
C4        C        0.65625        0.925925        0.764932        0        
C4        C        0.71875        0.925925        0.764932        0        
C4        C        0.78125        0.925925        0.764932        0        
C4        C        0.84375        0.925925        0.764932        0        
C4        C        0.9062500000000001        0.925925        0.764932        0        
C4        C        0.9687500000000001        0.925925        0.764932        0        
C1        C        0.0        0.018519        0.816233        0        
C2        C        0.03125        0.074075        0.816233        0        
C3        C        0.0        0.092592        0.816233        0        
C4        C        0.03125        0.037037        0.816233        0        
C1        C        0.0        0.12963        0.816233        0        
C2        C        0.03125        0.185185        0.816233        0        
C3        C        0.0        0.203703        0.816233        0        
C4        C        0.03125        0.148148        0.816233        0        
C1        C        0.0        0.24074099999999998        0.816233        0        
C2        C        0.03125        0.296297        0.816233        0        
C3        C        0.0        0.314815        0.816233        0        
C4        C        0.03125        0.259259        0.816233        0        
C1        C        0.0        0.351852        0.816233        0        
C2        C        0.03125        0.407408        0.816233        0        
C3        C        0.0        0.42592500000000005        0.816233        0        
C4        C        0.03125        0.37037        0.816233        0        
C1        C        0.0        0.46296300000000007        0.816233        0        
C2        C        0.03125        0.518519        0.816233        0        
C3        C        0.0        0.537037        0.816233        0        
C4        C        0.03125        0.481481        0.816233        0        
C1        C        0.0        0.574075        0.816233        0        
C2        C        0.03125        0.62963        0.816233        0        
C3        C        0.0        0.648148        0.816233        0        
C4        C        0.03125        0.592592        0.816233        0        
C1        C        0.0625        0.018519        0.816233        0        
C2        C        0.09375        0.074075        0.816233        0        
C3        C        0.0625        0.092592        0.816233        0        
C4        C        0.09375        0.037037        0.816233        0        
C1        C        0.0625        0.12963        0.816233        0        
C2        C        0.09375        0.185185        0.816233        0        
C3        C        0.0625        0.203703        0.816233        0        
C4        C        0.09375        0.148148        0.816233        0        
C1        C        0.0625        0.24074099999999998        0.816233        0        
C2        C        0.09375        0.296297        0.816233        0        
C3        C        0.0625        0.314815        0.816233        0        
C4        C        0.09375        0.259259        0.816233        0        
C1        C        0.0625        0.351852        0.816233        0        
C2        C        0.09375        0.407408        0.816233        0        
C3        C        0.0625        0.42592500000000005        0.816233        0        
C4        C        0.09375        0.37037        0.816233        0        
C1        C        0.0625        0.46296300000000007        0.816233        0        
C2        C        0.09375        0.518519        0.816233        0        
C3        C        0.0625        0.537037        0.816233        0        
C4        C        0.09375        0.481481        0.816233        0        
C1        C        0.0625        0.574075        0.816233        0        
C2        C        0.09375        0.62963        0.816233        0        
C3        C        0.0625        0.648148        0.816233        0        
C4        C        0.09375        0.592592        0.816233        0        
C1        C        0.125        0.018519        0.816233        0        
C2        C        0.15625        0.074075        0.816233        0        
C3        C        0.125        0.092592        0.816233        0        
C4        C        0.15625        0.037037        0.816233        0        
C1        C        0.125        0.12963        0.816233        0        
C2        C        0.15625        0.185185        0.816233        0        
C3        C        0.125        0.203703        0.816233        0        
C4        C        0.15625        0.148148        0.816233        0        
C1        C        0.125        0.24074099999999998        0.816233        0        
C2        C        0.15625        0.296297        0.816233        0        
C3        C        0.125        0.314815        0.816233        0        
C4        C        0.15625        0.259259        0.816233        0        
C1        C        0.125        0.351852        0.816233        0        
C2        C        0.15625        0.407408        0.816233        0        
C3        C        0.125        0.42592500000000005        0.816233        0        
C4        C        0.15625        0.37037        0.816233        0        
C1        C        0.125        0.46296300000000007        0.816233        0        
C2        C        0.15625        0.518519        0.816233        0        
C3        C        0.125        0.537037        0.816233        0        
C4        C        0.15625        0.481481        0.816233        0        
C1        C        0.125        0.574075        0.816233        0        
C2        C        0.15625        0.62963        0.816233        0        
C3        C        0.125        0.648148        0.816233        0        
C4        C        0.15625        0.592592        0.816233        0        
C1        C        0.1875        0.018519        0.816233        0        
C2        C        0.21875        0.074075        0.816233        0        
C3        C        0.1875        0.092592        0.816233        0        
C4        C        0.21875        0.037037        0.816233        0        
C1        C        0.1875        0.12963        0.816233        0        
C2        C        0.21875        0.185185        0.816233        0        
C3        C        0.1875        0.203703        0.816233        0        
C4        C        0.21875        0.148148        0.816233        0        
C1        C        0.1875        0.24074099999999998        0.816233        0        
C2        C        0.21875        0.296297        0.816233        0        
C3        C        0.1875        0.314815        0.816233        0        
C4        C        0.21875        0.259259        0.816233        0        
C1        C        0.1875        0.351852        0.816233        0        
C2        C        0.21875        0.407408        0.816233        0        
C3        C        0.1875        0.42592500000000005        0.816233        0        
C4        C        0.21875        0.37037        0.816233        0        
C1        C        0.1875        0.46296300000000007        0.816233        0        
C2        C        0.21875        0.518519        0.816233        0        
C3        C        0.1875        0.537037        0.816233        0        
C4        C        0.21875        0.481481        0.816233        0        
C1        C        0.1875        0.574075        0.816233        0        
C2        C        0.21875        0.62963        0.816233        0        
C3        C        0.1875        0.648148        0.816233        0        
C4        C        0.21875        0.592592        0.816233        0        
C1        C        0.25        0.018519        0.816233        0        
C2        C        0.28125        0.074075        0.816233        0        
C3        C        0.25        0.092592        0.816233        0        
C4        C        0.28125        0.037037        0.816233        0        
C1        C        0.25        0.12963        0.816233        0        
C2        C        0.28125        0.185185        0.816233        0        
C3        C        0.25        0.203703        0.816233        0        
C4        C        0.28125        0.148148        0.816233        0        
C1        C        0.25        0.24074099999999998        0.816233        0        
C2        C        0.28125        0.296297        0.816233        0        
C3        C        0.25        0.314815        0.816233        0        
C4        C        0.28125        0.259259        0.816233        0        
C1        C        0.25        0.351852        0.816233        0        
C2        C        0.28125        0.407408        0.816233        0        
C3        C        0.25        0.42592500000000005        0.816233        0        
C4        C        0.28125        0.37037        0.816233        0        
C1        C        0.25        0.46296300000000007        0.816233        0        
C2        C        0.28125        0.518519        0.816233        0        
C3        C        0.25        0.537037        0.816233        0        
C4        C        0.28125        0.481481        0.816233        0        
C1        C        0.25        0.574075        0.816233        0        
C2        C        0.28125        0.62963        0.816233        0        
C3        C        0.25        0.648148        0.816233        0        
C4        C        0.28125        0.592592        0.816233        0        
C1        C        0.3125        0.018519        0.816233        0        
C2        C        0.34375        0.074075        0.816233        0        
C3        C        0.3125        0.092592        0.816233        0        
C4        C        0.34375        0.037037        0.816233        0        
C1        C        0.3125        0.12963        0.816233        0        
C2        C        0.34375        0.185185        0.816233        0        
C3        C        0.3125        0.203703        0.816233        0        
C4        C        0.34375        0.148148        0.816233        0        
C1        C        0.3125        0.24074099999999998        0.816233        0        
C2        C        0.34375        0.296297        0.816233        0        
C3        C        0.3125        0.314815        0.816233        0        
C4        C        0.34375        0.259259        0.816233        0        
C1        C        0.3125        0.351852        0.816233        0        
C2        C        0.34375        0.407408        0.816233        0        
C3        C        0.3125        0.42592500000000005        0.816233        0        
C4        C        0.34375        0.37037        0.816233        0        
C1        C        0.3125        0.46296300000000007        0.816233        0        
C2        C        0.34375        0.518519        0.816233        0        
C3        C        0.3125        0.537037        0.816233        0        
C4        C        0.34375        0.481481        0.816233        0        
C1        C        0.3125        0.574075        0.816233        0        
C2        C        0.34375        0.62963        0.816233        0        
C3        C        0.3125        0.648148        0.816233        0        
C4        C        0.34375        0.592592        0.816233        0        
C1        C        0.375        0.018519        0.816233        0        
C2        C        0.40625        0.074075        0.816233        0        
C3        C        0.375        0.092592        0.816233        0        
C4        C        0.40625        0.037037        0.816233        0        
C1        C        0.375        0.12963        0.816233        0        
C2        C        0.40625        0.185185        0.816233        0        
C3        C        0.375        0.203703        0.816233        0        
C4        C        0.40625        0.148148        0.816233        0        
C1        C        0.375        0.24074099999999998        0.816233        0        
C2        C        0.40625        0.296297        0.816233        0        
C3        C        0.375        0.314815        0.816233        0        
C4        C        0.40625        0.259259        0.816233        0        
C1        C        0.375        0.351852        0.816233        0        
C2        C        0.40625        0.407408        0.816233        0        
C3        C        0.375        0.42592500000000005        0.816233        0        
C4        C        0.40625        0.37037        0.816233        0        
C1        C        0.375        0.46296300000000007        0.816233        0        
C2        C        0.40625        0.518519        0.816233        0        
C3        C        0.375        0.537037        0.816233        0        
C4        C        0.40625        0.481481        0.816233        0        
C1        C        0.375        0.574075        0.816233        0        
C2        C        0.40625        0.62963        0.816233        0        
C3        C        0.375        0.648148        0.816233        0        
C4        C        0.40625        0.592592        0.816233        0        
C1        C        0.4375        0.018519        0.816233        0        
C2        C        0.46875        0.074075        0.816233        0        
C3        C        0.4375        0.092592        0.816233        0        
C4        C        0.46875        0.037037        0.816233        0        
C1        C        0.4375        0.12963        0.816233        0        
C2        C        0.46875        0.185185        0.816233        0        
C3        C        0.4375        0.203703        0.816233        0        
C4        C        0.46875        0.148148        0.816233        0        
C1        C        0.4375        0.24074099999999998        0.816233        0        
C2        C        0.46875        0.296297        0.816233        0        
C3        C        0.4375        0.314815        0.816233        0        
C4        C        0.46875        0.259259        0.816233        0        
C1        C        0.4375        0.351852        0.816233        0        
C2        C        0.46875        0.407408        0.816233        0        
C3        C        0.4375        0.42592500000000005        0.816233        0        
C4        C        0.46875        0.37037        0.816233        0        
C1        C        0.4375        0.46296300000000007        0.816233        0        
C2        C        0.46875        0.518519        0.816233        0        
C3        C        0.4375        0.537037        0.816233        0        
C4        C        0.46875        0.481481        0.816233        0        
C1        C        0.4375        0.574075        0.816233        0        
C2        C        0.46875        0.62963        0.816233        0        
C3        C        0.4375        0.648148        0.816233        0        
C4        C        0.46875        0.592592        0.816233        0        
C1        C        0.5        0.018519        0.816233        0        
C2        C        0.53125        0.074075        0.816233        0        
C3        C        0.5        0.092592        0.816233        0        
C4        C        0.53125        0.037037        0.816233        0        
C1        C        0.5        0.12963        0.816233        0        
C2        C        0.53125        0.185185        0.816233        0        
C3        C        0.5        0.203703        0.816233        0        
C4        C        0.53125        0.148148        0.816233        0        
C1        C        0.5        0.24074099999999998        0.816233        0        
C2        C        0.53125        0.296297        0.816233        0        
C3        C        0.5        0.314815        0.816233        0        
C4        C        0.53125        0.259259        0.816233        0        
C1        C        0.5        0.351852        0.816233        0        
C2        C        0.53125        0.407408        0.816233        0        
C3        C        0.5        0.42592500000000005        0.816233        0        
C4        C        0.53125        0.37037        0.816233        0        
C1        C        0.5        0.46296300000000007        0.816233        0        
C2        C        0.53125        0.518519        0.816233        0        
C3        C        0.5        0.537037        0.816233        0        
C4        C        0.53125        0.481481        0.816233        0        
C1        C        0.5        0.574075        0.816233        0        
C2        C        0.53125        0.62963        0.816233        0        
C3        C        0.5        0.648148        0.816233        0        
C4        C        0.53125        0.592592        0.816233        0        
C1        C        0.5625        0.018519        0.816233        0        
C2        C        0.59375        0.074075        0.816233        0        
C3        C        0.5625        0.092592        0.816233        0        
C4        C        0.59375        0.037037        0.816233        0        
C1        C        0.5625        0.12963        0.816233        0        
C2        C        0.59375        0.185185        0.816233        0        
C3        C        0.5625        0.203703        0.816233        0        
C4        C        0.59375        0.148148        0.816233        0        
C1        C        0.5625        0.24074099999999998        0.816233        0        
C2        C        0.59375        0.296297        0.816233        0        
C3        C        0.5625        0.314815        0.816233        0        
C4        C        0.59375        0.259259        0.816233        0        
C1        C        0.5625        0.351852        0.816233        0        
C2        C        0.59375        0.407408        0.816233        0        
C3        C        0.5625        0.42592500000000005        0.816233        0        
C4        C        0.59375        0.37037        0.816233        0        
C1        C        0.5625        0.46296300000000007        0.816233        0        
C2        C        0.59375        0.518519        0.816233        0        
C3        C        0.5625        0.537037        0.816233        0        
C4        C        0.59375        0.481481        0.816233        0        
C1        C        0.5625        0.574075        0.816233        0        
C2        C        0.59375        0.62963        0.816233        0        
C3        C        0.5625        0.648148        0.816233        0        
C4        C        0.59375        0.592592        0.816233        0        
C1        C        0.625        0.018519        0.816233        0        
C2        C        0.65625        0.074075        0.816233        0        
C3        C        0.625        0.092592        0.816233        0        
C4        C        0.65625        0.037037        0.816233        0        
C1        C        0.625        0.12963        0.816233        0        
C2        C        0.65625        0.185185        0.816233        0        
C3        C        0.625        0.203703        0.816233        0        
C4        C        0.65625        0.148148        0.816233        0        
C1        C        0.625        0.24074099999999998        0.816233        0        
C2        C        0.65625        0.296297        0.816233        0        
C3        C        0.625        0.314815        0.816233        0        
C4        C        0.65625        0.259259        0.816233        0        
C1        C        0.625        0.351852        0.816233        0        
C2        C        0.65625        0.407408        0.816233        0        
C3        C        0.625        0.42592500000000005        0.816233        0        
C4        C        0.65625        0.37037        0.816233        0        
C1        C        0.625        0.46296300000000007        0.816233        0        
C2        C        0.65625        0.518519        0.816233        0        
C3        C        0.625        0.537037        0.816233        0        
C4        C        0.65625        0.481481        0.816233        0        
C1        C        0.625        0.574075        0.816233        0        
C2        C        0.65625        0.62963        0.816233        0        
C3        C        0.625        0.648148        0.816233        0        
C4        C        0.65625        0.592592        0.816233        0        
C1        C        0.6875        0.018519        0.816233        0        
C2        C        0.71875        0.074075        0.816233        0        
C3        C        0.6875        0.092592        0.816233        0        
C4        C        0.71875        0.037037        0.816233        0        
C1        C        0.6875        0.12963        0.816233        0        
C2        C        0.71875        0.185185        0.816233        0        
C3        C        0.6875        0.203703        0.816233        0        
C4        C        0.71875        0.148148        0.816233        0        
C1        C        0.6875        0.24074099999999998        0.816233        0        
C2        C        0.71875        0.296297        0.816233        0        
C3        C        0.6875        0.314815        0.816233        0        
C4        C        0.71875        0.259259        0.816233        0        
C1        C        0.6875        0.351852        0.816233        0        
C2        C        0.71875        0.407408        0.816233        0        
C3        C        0.6875        0.42592500000000005        0.816233        0        
C4        C        0.71875        0.37037        0.816233        0        
C1        C        0.6875        0.46296300000000007        0.816233        0        
C2        C        0.71875        0.518519        0.816233        0        
C3        C        0.6875        0.537037        0.816233        0        
C4        C        0.71875        0.481481        0.816233        0        
C1        C        0.6875        0.574075        0.816233        0        
C2        C        0.71875        0.62963        0.816233        0        
C3        C        0.6875        0.648148        0.816233        0        
C4        C        0.71875        0.592592        0.816233        0        
C1        C        0.75        0.018519        0.816233        0        
C2        C        0.78125        0.074075        0.816233        0        
C3        C        0.75        0.092592        0.816233        0        
C4        C        0.78125        0.037037        0.816233        0        
C1        C        0.75        0.12963        0.816233        0        
C2        C        0.78125        0.185185        0.816233        0        
C3        C        0.75        0.203703        0.816233        0        
C4        C        0.78125        0.148148        0.816233        0        
C1        C        0.75        0.24074099999999998        0.816233        0        
C2        C        0.78125        0.296297        0.816233        0        
C3        C        0.75        0.314815        0.816233        0        
C4        C        0.78125        0.259259        0.816233        0        
C1        C        0.75        0.351852        0.816233        0        
C2        C        0.78125        0.407408        0.816233        0        
C3        C        0.75        0.42592500000000005        0.816233        0        
C4        C        0.78125        0.37037        0.816233        0        
C1        C        0.75        0.46296300000000007        0.816233        0        
C2        C        0.78125        0.518519        0.816233        0        
C3        C        0.75        0.537037        0.816233        0        
C4        C        0.78125        0.481481        0.816233        0        
C1        C        0.75        0.574075        0.816233        0        
C2        C        0.78125        0.62963        0.816233        0        
C3        C        0.75        0.648148        0.816233        0        
C4        C        0.78125        0.592592        0.816233        0        
C1        C        0.8125        0.018519        0.816233        0        
C2        C        0.84375        0.074075        0.816233        0        
C3        C        0.8125        0.092592        0.816233        0        
C4        C        0.84375        0.037037        0.816233        0        
C1        C        0.8125        0.12963        0.816233        0        
C2        C        0.84375        0.185185        0.816233        0        
C3        C        0.8125        0.203703        0.816233        0        
C4        C        0.84375        0.148148        0.816233        0        
C1        C        0.8125        0.24074099999999998        0.816233        0        
C2        C        0.84375        0.296297        0.816233        0        
C3        C        0.8125        0.314815        0.816233        0        
C4        C        0.84375        0.259259        0.816233        0        
C1        C        0.8125        0.351852        0.816233        0        
C2        C        0.84375        0.407408        0.816233        0        
C3        C        0.8125        0.42592500000000005        0.816233        0        
C4        C        0.84375        0.37037        0.816233        0        
C1        C        0.8125        0.46296300000000007        0.816233        0        
C2        C        0.84375        0.518519        0.816233        0        
C3        C        0.8125        0.537037        0.816233        0        
C4        C        0.84375        0.481481        0.816233        0        
C1        C        0.8125        0.574075        0.816233        0        
C2        C        0.84375        0.62963        0.816233        0        
C3        C        0.8125        0.648148        0.816233        0        
C4        C        0.84375        0.592592        0.816233        0        
C1        C        0.875        0.018519        0.816233        0        
C2        C        0.9062500000000001        0.074075        0.816233        0        
C3        C        0.875        0.092592        0.816233        0        
C4        C        0.9062500000000001        0.037037        0.816233        0        
C1        C        0.875        0.12963        0.816233        0        
C2        C        0.9062500000000001        0.185185        0.816233        0        
C3        C        0.875        0.203703        0.816233        0        
C4        C        0.9062500000000001        0.148148        0.816233        0        
C1        C        0.875        0.24074099999999998        0.816233        0        
C2        C        0.9062500000000001        0.296297        0.816233        0        
C3        C        0.875        0.314815        0.816233        0        
C4        C        0.9062500000000001        0.259259        0.816233        0        
C1        C        0.875        0.351852        0.816233        0        
C2        C        0.9062500000000001        0.407408        0.816233        0        
C3        C        0.875        0.42592500000000005        0.816233        0        
C4        C        0.9062500000000001        0.37037        0.816233        0        
C1        C        0.875        0.46296300000000007        0.816233        0        
C2        C        0.9062500000000001        0.518519        0.816233        0        
C3        C        0.875        0.537037        0.816233        0        
C4        C        0.9062500000000001        0.481481        0.816233        0        
C1        C        0.875        0.574075        0.816233        0        
C2        C        0.9062500000000001        0.62963        0.816233        0        
C3        C        0.875        0.648148        0.816233        0        
C4        C        0.9062500000000001        0.592592        0.816233        0        
C1        C        0.9375        0.018519        0.816233        0        
C2        C        0.9687500000000001        0.074075        0.816233        0        
C3        C        0.9375        0.092592        0.816233        0        
C4        C        0.9687500000000001        0.037037        0.816233        0        
C1        C        0.9375        0.12963        0.816233        0        
C2        C        0.9687500000000001        0.185185        0.816233        0        
C3        C        0.9375        0.203703        0.816233        0        
C4        C        0.9687500000000001        0.148148        0.816233        0        
C1        C        0.9375        0.24074099999999998        0.816233        0        
C2        C        0.9687500000000001        0.296297        0.816233        0        
C3        C        0.9375        0.314815        0.816233        0        
C4        C        0.9687500000000001        0.259259        0.816233        0        
C1        C        0.9375        0.351852        0.816233        0        
C2        C        0.9687500000000001        0.407408        0.816233        0        
C3        C        0.9375        0.42592500000000005        0.816233        0        
C4        C        0.9687500000000001        0.37037        0.816233        0        
C1        C        0.9375        0.46296300000000007        0.816233        0        
C2        C        0.9687500000000001        0.518519        0.816233        0        
C3        C        0.9375        0.537037        0.816233        0        
C4        C        0.9687500000000001        0.481481        0.816233        0        
C1        C        0.9375        0.574075        0.816233        0        
C2        C        0.9687500000000001        0.62963        0.816233        0        
C3        C        0.9375        0.648148        0.816233        0        
C4        C        0.9687500000000001        0.592592        0.816233        0        
C1        C        0.0        0.685186        0.816233        0        
C1        C        0.0625        0.685186        0.816233        0        
C1        C        0.125        0.685186        0.816233        0        
C1        C        0.1875        0.685186        0.816233        0        
C1        C        0.25        0.685186        0.816233        0        
C1        C        0.3125        0.685186        0.816233        0        
C1        C        0.375        0.685186        0.816233        0        
C1        C        0.4375        0.685186        0.816233        0        
C1        C        0.5        0.685186        0.816233        0        
C1        C        0.5625        0.685186        0.816233        0        
C1        C        0.625        0.685186        0.816233        0        
C1        C        0.6875        0.685186        0.816233        0        
C1        C        0.75        0.685186        0.816233        0        
C1        C        0.8125        0.685186        0.816233        0        
C1        C        0.875        0.685186        0.816233        0        
C1        C        0.9375        0.685186        0.816233        0        
C2        C        0.03125        0.740741        0.816233        0        
C2        C        0.09375        0.740741        0.816233        0        
C2        C        0.15625        0.740741        0.816233        0        
C2        C        0.21875        0.740741        0.816233        0        
C2        C        0.28125        0.740741        0.816233        0        
C2        C        0.34375        0.740741        0.816233        0        
C2        C        0.40625        0.740741        0.816233        0        
C2        C        0.46875        0.740741        0.816233        0        
C2        C        0.53125        0.740741        0.816233        0        
C2        C        0.59375        0.740741        0.816233        0        
C2        C        0.65625        0.740741        0.816233        0        
C2        C        0.71875        0.740741        0.816233        0        
C2        C        0.78125        0.740741        0.816233        0        
C2        C        0.84375        0.740741        0.816233        0        
C2        C        0.9062500000000001        0.740741        0.816233        0        
C2        C        0.9687500000000001        0.740741        0.816233        0        
C3        C        0.0        0.759259        0.816233        0        
C3        C        0.0625        0.759259        0.816233        0        
C3        C        0.125        0.759259        0.816233        0        
C3        C        0.1875        0.759259        0.816233        0        
C3        C        0.25        0.759259        0.816233        0        
C3        C        0.3125        0.759259        0.816233        0        
C3        C        0.375        0.759259        0.816233        0        
C3        C        0.4375        0.759259        0.816233        0        
C3        C        0.5        0.759259        0.816233        0        
C3        C        0.5625        0.759259        0.816233        0        
C3        C        0.625        0.759259        0.816233        0        
C3        C        0.6875        0.759259        0.816233        0        
C3        C        0.75        0.759259        0.816233        0        
C3        C        0.8125        0.759259        0.816233        0        
C3        C        0.875        0.759259        0.816233        0        
C3        C        0.9375        0.759259        0.816233        0        
C4        C        0.03125        0.703703        0.816233        0        
C4        C        0.09375        0.703703        0.816233        0        
C4        C        0.15625        0.703703        0.816233        0        
C4        C        0.21875        0.703703        0.816233        0        
C4        C        0.28125        0.703703        0.816233        0        
C4        C        0.34375        0.703703        0.816233        0        
C4        C        0.40625        0.703703        0.816233        0        
C4        C        0.46875        0.703703        0.816233        0        
C4        C        0.53125        0.703703        0.816233        0        
C4        C        0.59375        0.703703        0.816233        0        
C4        C        0.65625        0.703703        0.816233        0        
C4        C        0.71875        0.703703        0.816233        0        
C4        C        0.78125        0.703703        0.816233        0        
C4        C        0.84375        0.703703        0.816233        0        
C4        C        0.9062500000000001        0.703703        0.816233        0        
C4        C        0.9687500000000001        0.703703        0.816233        0        
C1        C        0.0        0.796297        0.816233        0        
C1        C        0.0625        0.796297        0.816233        0        
C1        C        0.125        0.796297        0.816233        0        
C1        C        0.1875        0.796297        0.816233        0        
C1        C        0.25        0.796297        0.816233        0        
C1        C        0.3125        0.796297        0.816233        0        
C1        C        0.375        0.796297        0.816233        0        
C1        C        0.4375        0.796297        0.816233        0        
C1        C        0.5        0.796297        0.816233        0        
C1        C        0.5625        0.796297        0.816233        0        
C1        C        0.625        0.796297        0.816233        0        
C1        C        0.6875        0.796297        0.816233        0        
C1        C        0.75        0.796297        0.816233        0        
C1        C        0.8125        0.796297        0.816233        0        
C1        C        0.875        0.796297        0.816233        0        
C1        C        0.9375        0.796297        0.816233        0        
C2        C        0.03125        0.851852        0.816233        0        
C2        C        0.09375        0.851852        0.816233        0        
C2        C        0.15625        0.851852        0.816233        0        
C2        C        0.21875        0.851852        0.816233        0        
C2        C        0.28125        0.851852        0.816233        0        
C2        C        0.34375        0.851852        0.816233        0        
C2        C        0.40625        0.851852        0.816233        0        
C2        C        0.46875        0.851852        0.816233        0        
C2        C        0.53125        0.851852        0.816233        0        
C2        C        0.59375        0.851852        0.816233        0        
C2        C        0.65625        0.851852        0.816233        0        
C2        C        0.71875        0.851852        0.816233        0        
C2        C        0.78125        0.851852        0.816233        0        
C2        C        0.84375        0.851852        0.816233        0        
C2        C        0.9062500000000001        0.851852        0.816233        0        
C2        C        0.9687500000000001        0.851852        0.816233        0        
C3        C        0.0        0.87037        0.816233        0        
C3        C        0.0625        0.87037        0.816233        0        
C3        C        0.125        0.87037        0.816233        0        
C3        C        0.1875        0.87037        0.816233        0        
C3        C        0.25        0.87037        0.816233        0        
C3        C        0.3125        0.87037        0.816233        0        
C3        C        0.375        0.87037        0.816233        0        
C3        C        0.4375        0.87037        0.816233        0        
C3        C        0.5        0.87037        0.816233        0        
C3        C        0.5625        0.87037        0.816233        0        
C3        C        0.625        0.87037        0.816233        0        
C3        C        0.6875        0.87037        0.816233        0        
C3        C        0.75        0.87037        0.816233        0        
C3        C        0.8125        0.87037        0.816233        0        
C3        C        0.875        0.87037        0.816233        0        
C3        C        0.9375        0.87037        0.816233        0        
C4        C        0.03125        0.814814        0.816233        0        
C4        C        0.09375        0.814814        0.816233        0        
C4        C        0.15625        0.814814        0.816233        0        
C4        C        0.21875        0.814814        0.816233        0        
C4        C        0.28125        0.814814        0.816233        0        
C4        C        0.34375        0.814814        0.816233        0        
C4        C        0.40625        0.814814        0.816233        0        
C4        C        0.46875        0.814814        0.816233        0        
C4        C        0.53125        0.814814        0.816233        0        
C4        C        0.59375        0.814814        0.816233        0        
C4        C        0.65625        0.814814        0.816233        0        
C4        C        0.71875        0.814814        0.816233        0        
C4        C        0.78125        0.814814        0.816233        0        
C4        C        0.84375        0.814814        0.816233        0        
C4        C        0.9062500000000001        0.814814        0.816233        0        
C4        C        0.9687500000000001        0.814814        0.816233        0        
C1        C        0.0        0.907408        0.816233        0        
C1        C        0.0625        0.907408        0.816233        0        
C1        C        0.125        0.907408        0.816233        0        
C1        C        0.1875        0.907408        0.816233        0        
C1        C        0.25        0.907408        0.816233        0        
C1        C        0.3125        0.907408        0.816233        0        
C1        C        0.375        0.907408        0.816233        0        
C1        C        0.4375        0.907408        0.816233        0        
C1        C        0.5        0.907408        0.816233        0        
C1        C        0.5625        0.907408        0.816233        0        
C1        C        0.625        0.907408        0.816233        0        
C1        C        0.6875        0.907408        0.816233        0        
C1        C        0.75        0.907408        0.816233        0        
C1        C        0.8125        0.907408        0.816233        0        
C1        C        0.875        0.907408        0.816233        0        
C1        C        0.9375        0.907408        0.816233        0        
C2        C        0.03125        0.962963        0.816233        0        
C2        C        0.09375        0.962963        0.816233        0        
C2        C        0.15625        0.962963        0.816233        0        
C2        C        0.21875        0.962963        0.816233        0        
C2        C        0.28125        0.962963        0.816233        0        
C2        C        0.34375        0.962963        0.816233        0        
C2        C        0.40625        0.962963        0.816233        0        
C2        C        0.46875        0.962963        0.816233        0        
C2        C        0.53125        0.962963        0.816233        0        
C2        C        0.59375        0.962963        0.816233        0        
C2        C        0.65625        0.962963        0.816233        0        
C2        C        0.71875        0.962963        0.816233        0        
C2        C        0.78125        0.962963        0.816233        0        
C2        C        0.84375        0.962963        0.816233        0        
C2        C        0.9062500000000001        0.962963        0.816233        0        
C2        C        0.9687500000000001        0.962963        0.816233        0        
C3        C        0.0        0.9814809999999999        0.816233        0        
C3        C        0.0625        0.9814809999999999        0.816233        0        
C3        C        0.125        0.9814809999999999        0.816233        0        
C3        C        0.1875        0.9814809999999999        0.816233        0        
C3        C        0.25        0.9814809999999999        0.816233        0        
C3        C        0.3125        0.9814809999999999        0.816233        0        
C3        C        0.375        0.9814809999999999        0.816233        0        
C3        C        0.4375        0.9814809999999999        0.816233        0        
C3        C        0.5        0.9814809999999999        0.816233        0        
C3        C        0.5625        0.9814809999999999        0.816233        0        
C3        C        0.625        0.9814809999999999        0.816233        0        
C3        C        0.6875        0.9814809999999999        0.816233        0        
C3        C        0.75        0.9814809999999999        0.816233        0        
C3        C        0.8125        0.9814809999999999        0.816233        0        
C3        C        0.875        0.9814809999999999        0.816233        0        
C3        C        0.9375        0.9814809999999999        0.816233        0        
C4        C        0.03125        0.925925        0.816233        0        
C4        C        0.09375        0.925925        0.816233        0        
C4        C        0.15625        0.925925        0.816233        0        
C4        C        0.21875        0.925925        0.816233        0        
C4        C        0.28125        0.925925        0.816233        0        
C4        C        0.34375        0.925925        0.816233        0        
C4        C        0.40625        0.925925        0.816233        0        
C4        C        0.46875        0.925925        0.816233        0        
C4        C        0.53125        0.925925        0.816233        0        
C4        C        0.59375        0.925925        0.816233        0        
C4        C        0.65625        0.925925        0.816233        0        
C4        C        0.71875        0.925925        0.816233        0        
C4        C        0.78125        0.925925        0.816233        0        
C4        C        0.84375        0.925925        0.816233        0        
C4        C        0.9062500000000001        0.925925        0.816233        0        
C4        C        0.9687500000000001        0.925925        0.816233        0        
C_COOH        C        0.0        0.018519        0.3096477794793262        0.55        
C_COOH        C        0.0        0.203703        0.3096477794793262        0.55        
C_COOH        C        0.0        0.351852        0.3096477794793262        0.55        
C_COOH        C        0.0        0.537037        0.3096477794793262        0.55        
C_COOH        C        0.25        0.018519        0.3096477794793262        0.55        
C_COOH        C        0.25        0.203703        0.3096477794793262        0.55        
C_COOH        C        0.25        0.351852        0.3096477794793262        0.55        
C_COOH        C        0.25        0.537037        0.3096477794793262        0.55        
C_COOH        C        0.5        0.018519        0.3096477794793262        0.55        
C_COOH        C        0.5        0.203703        0.3096477794793262        0.55        
C_COOH        C        0.5        0.351852        0.3096477794793262        0.55        
C_COOH        C        0.5        0.537037        0.3096477794793262        0.55        
C_COOH        C        0.75        0.018519        0.3096477794793262        0.55        
C_COOH        C        0.75        0.203703        0.3096477794793262        0.55        
C_COOH        C        0.75        0.351852        0.3096477794793262        0.55        
C_COOH        C        0.75        0.537037        0.3096477794793262        0.55        
C_COOH        C        0.0        0.685186        0.3096477794793262        0.55        
C_COOH        C        0.25        0.685186        0.3096477794793262        0.55        
C_COOH        C        0.5        0.685186        0.3096477794793262        0.55        
C_COOH        C        0.75        0.685186        0.3096477794793262        0.55        
C_COOH        C        0.0        0.87037        0.3096477794793262        0.55        
C_COOH        C        0.25        0.87037        0.3096477794793262        0.55        
C_COOH        C        0.5        0.87037        0.3096477794793262        0.55        
C_COOH        C        0.75        0.87037        0.3096477794793262        0.55        
C_COOH        C        0.0        0.018519        0.6903522205206738        0.55        
C_COOH        C        0.0        0.203703        0.6903522205206738        0.55        
C_COOH        C        0.0        0.351852        0.6903522205206738        0.55        
C_COOH        C        0.0        0.537037        0.6903522205206738        0.55        
C_COOH        C        0.25        0.018519        0.6903522205206738        0.55        
C_COOH        C        0.25        0.203703        0.6903522205206738        0.55        
C_COOH        C        0.25        0.351852        0.6903522205206738        0.55        
C_COOH        C        0.25        0.537037        0.6903522205206738        0.55        
C_COOH        C        0.5        0.018519        0.6903522205206738        0.55        
C_COOH        C        0.5        0.203703        0.6903522205206738        0.55        
C_COOH        C        0.5        0.351852        0.6903522205206738        0.55        
C_COOH        C        0.5        0.537037        0.6903522205206738        0.55        
C_COOH        C        0.75        0.018519        0.6903522205206738        0.55        
C_COOH        C        0.75        0.203703        0.6903522205206738        0.55        
C_COOH        C        0.75        0.351852        0.6903522205206738        0.55        
C_COOH        C        0.75        0.537037        0.6903522205206738        0.55        
C_COOH        C        0.0        0.685186        0.6903522205206738        0.55        
C_COOH        C        0.25        0.685186        0.6903522205206738        0.55        
C_COOH        C        0.5        0.685186        0.6903522205206738        0.55        
C_COOH        C        0.75        0.685186        0.6903522205206738        0.55        
C_COOH        C        0.0        0.87037        0.6903522205206738        0.55        
C_COOH        C        0.25        0.87037        0.6903522205206738        0.55        
C_COOH        C        0.5        0.87037        0.6903522205206738        0.55        
C_COOH        C        0.75        0.87037        0.6903522205206738        0.55        
O_COOH_d        O        -0.002034530026639216        0.048006064825500676        0.31631024502297095        -0.5        
O_COOH_d        O        0.013269671445848683        0.22993793013961458        0.31631024502297095        -0.5        
O_COOH_d        O        0.024019970875627898        0.36815485884179905        0.31631024502297095        -0.5        
O_COOH_d        O        0.002682559123369585        0.5664693864177113        0.31631024502297095        -0.5        
O_COOH_d        O        0.22121978642639045        0.01946250241858649        0.31631024502297095        -0.5        
O_COOH_d        O        0.22163311475735364        0.20878081778380436        0.31631024502297095        -0.5        
O_COOH_d        O        0.27806201571176764        0.3584788564100698        0.31631024502297095        -0.5        
O_COOH_d        O        0.22849740186904535        0.5566981062180741        0.31631024502297095        -0.5        
O_COOH_d        O        0.5215173893387739        0.038163044199185994        0.31631024502297095        -0.5        
O_COOH_d        O        0.5042718063020057        0.23293683783972788        0.31631024502297095        -0.5        
O_COOH_d        O        0.4810082270903744        0.37407170404941575        0.31631024502297095        -0.5        
O_COOH_d        O        0.5285514368735815        0.54087281954759        0.31631024502297095        -0.5        
O_COOH_d        O        0.7439876110896105        0.0474283697986847        0.31631024502297095        -0.5        
O_COOH_d        O        0.7243274068313372        0.21709077160495321        0.31631024502297095        -0.5        
O_COOH_d        O        0.7220911365847161        0.35912863833602676        0.31631024502297095        -0.5        
O_COOH_d        O        0.7401961866860893        0.5648318306140232        0.31631024502297095        -0.5        
O_COOH_d        O        0.02660140032694274        0.6965024578806044        0.31631024502297095        -0.5        
O_COOH_d        O        0.2343557013128531        0.7100035300334361        0.31631024502297095        -0.5        
O_COOH_d        O        0.5254459925461573        0.699022201323462        0.31631024502297095        -0.5        
O_COOH_d        O        0.7348303263719623        0.7103121498271298        0.31631024502297095        -0.5        
O_COOH_d        O        0.028633055163319262        0.873499627676271        0.31631024502297095        -0.5        
O_COOH_d        O        0.27003447779673695        0.8916027198642177        0.31631024502297095        -0.5        
O_COOH_d        O        0.5244919049864191        0.8859152379983964        0.31631024502297095        -0.5        
O_COOH_d        O        0.748897729444934        0.8999092784447035        0.31631024502297095        -0.5        
O_COOH_d        O        -0.0151716035502804        0.043643921725508364        0.6836897549770292        -0.5        
O_COOH_d        O        0.02631105159913474        0.21571356183770798        0.6836897549770292        -0.5        
O_COOH_d        O        0.026925903183268464        0.3623284473672121        0.6836897549770292        -0.5        
O_COOH_d        O        0.01091257556284023        0.564392888482353        0.6836897549770292        -0.5        
O_COOH_d        O        0.27879485877193505        0.01855820013668955        0.6836897549770292        -0.5        
O_COOH_d        O        0.27172219353609195        0.22310803450332958        0.6836897549770292        -0.5        
O_COOH_d        O        0.2585898651244801        0.3800669865935157        0.6836897549770292        -0.5        
O_COOH_d        O        0.2776501125102079        0.5452893022529214        0.6836897549770292        -0.5        
O_COOH_d        O        0.49623173900471984        0.047825724375618994        0.6836897549770292        -0.5        
O_COOH_d        O        0.48992080475068567        0.2313938283576559        0.6836897549770292        -0.5        
O_COOH_d        O        0.5229760381946049        0.36967022176935943        0.6836897549770292        -0.5        
O_COOH_d        O        0.5259751346942741        0.5497949143517042        0.6836897549770292        -0.5        
O_COOH_d        O        0.7767302404446087        0.02951083761265887        0.6836897549770292        -0.5        
O_COOH_d        O        0.7574820231431529        0.2322485873986576        0.6836897549770292        -0.5        
O_COOH_d        O        0.7416417164201902        0.38014019471685284        0.6836897549770292        -0.5        
O_COOH_d        O        0.7588927570361138        0.5651529140037682        0.6836897549770292        -0.5        
O_COOH_d        O        0.028718780816543533        0.6873337818614516        0.6836897549770292        -0.5        
O_COOH_d        O        0.27872011012803194        0.6873149659559227        0.6836897549770292        -0.5        
O_COOH_d        O        0.4766699380776898        0.7025126182666629        0.6836897549770292        -0.5        
O_COOH_d        O        0.7615650284992789        0.71225791067874        0.6836897549770292        -0.5        
O_COOH_d        O        0.018821486899914332        0.8927418905206805        0.6836897549770292        -0.5        
O_COOH_d        O        0.2707460352776191        0.8908699072920041        0.6836897549770292        -0.5        
O_COOH_d        O        0.4779319033858311        0.8893592467726996        0.6836897549770292        -0.5        
O_COOH_d        O        0.7249420271816832        0.8849334325298989        0.6836897549770292        -0.5        
O_COOH        O        0.0019809143325147673        -0.010190996201488573        0.3219255589586524        -0.58        
O_COOH        O        -0.012919977592203376        0.17815943541966656        0.3219255589586524        -0.58        
O_COOH        O        -0.023386975837715776        0.33597876818831157        0.3219255589586524        -0.58        
O_COOH        O        -0.002611866006263362        0.5083802412736289        0.3219255589586524        -0.58        
O_COOH        O        0.2780217725048641        0.017600361572811158        0.3219255589586524        -0.58        
O_COOH        O        0.2776193365594031        0.19875899726023596        0.3219255589586524        -0.58        
O_COOH        O        0.22267749878603654        0.3453997802390023        0.3219255589586524        -0.58        
O_COOH        O        0.2709359430758928        0.5178940202501194        0.3219255589586524        -0.58        
O_COOH        O        0.4790496555069834        -0.0006073673640642653        0.3219255589586524        -0.58        
O_COOH        O        0.49584076803066496        0.17523955752783898        0.3219255589586524        -0.58        
O_COOH        O        0.5184912852914184        0.33021784880075145        0.3219255589586524        -0.58        
O_COOH        O        0.47220097527378607        0.5333022652852152        0.3219255589586524        -0.58        
O_COOH        O        0.7558539452400794        -0.009628525093439795        0.3219255589586524        -0.58        
O_COOH        O        0.7749960467993835        0.190668034526183        0.3219255589586524        -0.58        
O_COOH        O        0.7771733849191976        0.3447671219280982        0.3219255589586524        -0.58        
O_COOH        O        0.7595454547500118        0.5099746427911022        0.3219255589586524        -0.58        
O_COOH        O        -0.025900377228469548        0.6741677632006057        0.3219255589586524        -0.58        
O_COOH        O        0.26523202660356054        0.6610224829728968        0.3219255589586524        -0.58        
O_COOH        O        0.47522458224762026        0.6717144222152862        0.3219255589586524        -0.58        
O_COOH        O        0.764769909274325        0.6607219961948102        0.3219255589586524        -0.58        
O_COOH        O        -0.027878492140221037        0.8673228469778345        0.3219255589586524        -0.58        
O_COOH        O        0.23049348808207945        0.8496968231254478        0.3219255589586524        -0.58        
O_COOH        O        0.4761535268671703        0.8552344235522814        0.3219255589586524        -0.58        
O_COOH        O        0.75107322256848        0.8416091661577408        0.3219255589586524        -0.58        
O_COOH        O        0.014771788337588293        -0.005943808067564073        0.6780744410413476        -0.58        
O_COOH        O        -0.025617680021344815        0.19200895087103637        0.6780744410413476        -0.58        
O_COOH        O        -0.02621632850499086        0.34165163703075535        0.6780744410413476        -0.58        
O_COOH        O        -0.01062499793762638        0.5104020175402506        0.6780744410413476        -0.58        
O_COOH        O        0.22196396823973752        0.018480832899201233        0.6780744410413476        -0.58        
O_COOH        O        0.2288502484869275        0.18480934374166172        0.6780744410413476        -0.58        
O_COOH        O        0.24163650242726606        0.3243805591252085        0.6780744410413476        -0.58        
O_COOH        O        0.22307854715833622        0.5290021695502084        0.6780744410413476        -0.58        
O_COOH        O        0.50366895652385        -0.010015408239047481        0.6780744410413476        -0.58        
O_COOH        O        0.5098135795825843        0.17674190429009917        0.6780744410413476        -0.58        
O_COOH        O        0.47762944622681136        0.33450333941465793        0.6780744410413476        -0.58        
O_COOH        O        0.47470938451083683        0.5246152932365793        0.6780744410413476        -0.58        
O_COOH        O        0.7239741779600283        0.007816828794614287        0.6780744410413476        -0.58        
O_COOH        O        0.7427151495989658        0.17590967059828985        0.6780744410413476        -0.58        
O_COOH        O        0.7581380188651324        0.3243092802456264        0.6780744410413476        -0.58        
O_COOH        O        0.7413415925851394        0.509662020868422        0.6780744410413476        -0.58        
O_COOH        O        -0.027961958676921236        0.6830948183429306        0.6780744410413476        -0.58        
O_COOH        O        0.22203674704275592        0.6831131383954507        0.6780744410413476        -0.58        
O_COOH        O        0.522715247961566        0.6683159877568574        0.6780744410413476        -0.58        
O_COOH        O        0.7387397431297652        0.6588275117152824        0.6780744410413476        -0.58        
O_COOH        O        -0.01832548680584834        0.8485876728789434        0.6780744410413476        -0.58        
O_COOH        O        0.22980068217907892        0.8504103239872377        0.6780744410413476        -0.58        
O_COOH        O        0.5214865390542008        0.8518811742745633        0.6780744410413476        -0.58        
O_COOH        O        0.7743976234558525        0.856190355634297        0.6780744410413476        -0.58        
H_COOH        H        0.0033715521325386436        -0.030345934404013935        0.31298589586523734        0.45        
H_COOH        H        -0.021990036261712007        0.1602273896619544        0.31298589586523734        0.45        
H_COOH        H        -0.03980505717235126        0.3248354714775182        0.31298589586523734        0.45        
H_COOH        H        -0.004445443328254974        0.4882626767444931        0.31298589586523734        0.45        
H_COOH        H        0.2976935651863092        0.016955460730591742        0.31298589586523734        0.45        
H_COOH        H        0.29700861190596883        0.19528821764070076        0.31298589586523734        0.45        
H_COOH        H        0.20349660723728374        0.3408702049078402        0.31298589586523734        0.45        
H_COOH        H        0.28563335494403963        0.5044553011655438        0.31298589586523734        0.45        
H_COOH        H        0.46434213358273907        -0.014034424252407779        0.31298589586523734        0.45        
H_COOH        H        0.4929209117296192        0.15525770451638524        0.31298589586523734        0.45        
H_COOH        H        0.531472503042833        0.3150302821628172        0.31298589586523734        0.45        
H_COOH        H        0.4526855555741392        0.5306804137582751        0.31298589586523734        0.45        
H_COOH        H        0.7599635210034037        -0.029388598373522524        0.31298589586523734        0.45        
H_COOH        H        0.7925437251415661        0.18151725227762208        0.31298589586523734        0.45        
H_COOH        H        0.796249594123693        0.3397934089847227        0.31298589586523734        0.45        
H_COOH        H        0.7662465371622593        0.49097637705354974        0.31298589586523734        0.45        
H_COOH        H        -0.04408291193862157        0.6664327610698472        0.31298589586523734        0.45        
H_COOH        H        0.27592518562522794        0.6440592556349677        0.31298589586523734        0.45        
H_COOH        H        0.4578317894991812        0.6622571302032678        0.31298589586523734        0.45        
H_COOH        H        0.775138653546938        0.6435478216871039        0.31298589586523734        0.45        
H_COOH        H        -0.04744969940623282        0.8651836902735157        0.31298589586523734        0.45        
H_COOH        H        0.2167995628201831        0.8351838778978593        0.31298589586523734        0.45        
H_COOH        H        0.4594128700949675        0.8446089742898552        0.31298589586523734        0.45        
H_COOH        H        0.7518266442824175        0.8214185390090761        0.31298589586523734        0.45        
H_COOH        H        0.025141851746702932        -0.023117143145763387        0.6870141041347626        0.45        
H_COOH        H        -0.043601756163281144        0.18379951622404267        0.6870141041347626        0.45        
H_COOH        H        -0.044620666743384586        0.3344907971669801        0.6870141041347626        0.45        
H_COOH        H        -0.01808393925311551        0.49170377663021664        0.6870141041347626        0.45        
H_COOH        H        0.20228216530230525        0.018454038901996567        0.6870141041347626        0.45        
H_COOH        H        0.2140027392168761        0.1715456542714827        0.6870141041347626        0.45        
H_COOH        H        0.23576517539704223        0.30509510923242716        0.6870141041347626        0.45        
H_COOH        H        0.20417919884292957        0.5233615728031101        0.6870141041347626        0.45        
H_COOH        H        0.5062446305673777        -0.030047080506346982        0.6870141041347626        0.45        
H_COOH        H        0.5167028904917338        0.15781472596197219        0.6870141041347626        0.45        
H_COOH        H        0.4619249116218396        0.3223242649368972        0.6870141041347626        0.45        
H_COOH        H        0.4569549136042372        0.5158950297287194        0.6870141041347626        0.45        
H_COOH        H        0.705703578716328        0.0003037104450475396        0.6870141041347626        0.45        
H_COOH        H        0.7376010524525555        0.1563982491197717        0.6870141041347626        0.45        
H_COOH        H        0.7638510557518884        0.3049737912862062        0.6870141041347626        0.45        
H_COOH        H        0.7352632334953617        0.49044428886942687        0.6870141041347626        0.45        
H_COOH        H        -0.04759176096598232        0.6816267708805523        0.6870141041347626        0.45        
H_COOH        H        0.20240603614542677        0.6816579519423116        0.6870141041347626        0.45        
H_COOH        H        0.5386617641403687        0.6564729330991645        0.6870141041347626        0.45        
H_COOH        H        0.7308348385184446        0.6403233747323968        0.6870141041347626        0.45        
H_COOH        H        -0.031190311012405256        0.8332960840556287        0.6870141041347626        0.45        
H_COOH        H        0.21562039460409396        0.836398269309265        0.6870141041347626        0.45        
H_COOH        H        0.5365704792882685        0.8389016831830906        0.6870141041347626        0.45        
H_COOH        H        0.7915251977540231        0.8462359880363761        0.6870141041347626        0.45        
