data_graphite_ortho

_audit_creation_method RASPA-1.0
_audit_creation_date 2012-2-3
_audit_author_name 'David Dubbeldam'

_cell_length_a    22.14    
_cell_length_b    38.34    
_cell_length_c    22.2    
_cell_angle_alpha 90
_cell_angle_beta  90
_cell_angle_gamma 90
_cell_volume      18844.42      

_symmetry_cell_setting          triclinic
_symmetry_space_group_name_Hall 'P 1'
_symmetry_space_group_name_H-M  'P 1'
_symmetry_Int_Tables_number     1

_symmetry_equiv_pos_as_xyz 'x,y,z'

loop_
_atom_site_label
_atom_site_type_symbol
_atom_site_fract_x
_atom_site_fract_y
_atom_site_fract_z
_atom_site_charge
C_FG        C        0.0        0.018519        0.07969364864864865        0.2        
C2        C        0.055556        0.074075        0.07969364864864865        0        
C3        C        0.0        0.092592        0.07969364864864865        0        
C4        C        0.055556        0.037037        0.07969364864864865        0        
C_FG        C        0.0        0.12963        0.07969364864864865        0.2        
C2        C        0.055556        0.185185        0.07969364864864865        0        
C3        C        0.0        0.203703        0.07969364864864865        0        
C4        C        0.055556        0.148148        0.07969364864864865        0        
C_FG        C        0.0        0.24074099999999998        0.07969364864864865        0.2        
C2        C        0.055556        0.296297        0.07969364864864865        0        
C3        C        0.0        0.314815        0.07969364864864865        0        
C4        C        0.055556        0.259259        0.07969364864864865        0        
C_FG        C        0.0        0.351852        0.07969364864864865        0.2        
C2        C        0.055556        0.407408        0.07969364864864865        0        
C3        C        0.0        0.42592500000000005        0.07969364864864865        0        
C4        C        0.055556        0.37037        0.07969364864864865        0        
C_FG        C        0.0        0.46296300000000007        0.07969364864864865        0.2        
C2        C        0.055556        0.518519        0.07969364864864865        0        
C3        C        0.0        0.537037        0.07969364864864865        0        
C4        C        0.055556        0.481481        0.07969364864864865        0        
C_FG        C        0.0        0.574075        0.07969364864864865        0.2        
C2        C        0.055556        0.62963        0.07969364864864865        0        
C3        C        0.0        0.648148        0.07969364864864865        0        
C4        C        0.055556        0.592592        0.07969364864864865        0        
C1        C        0.11111100000000002        0.018519        0.07969364864864865        0        
C2        C        0.166667        0.074075        0.07969364864864865        0        
C3        C        0.11111100000000002        0.092592        0.07969364864864865        0        
C4        C        0.166667        0.037037        0.07969364864864865        0        
C1        C        0.11111100000000002        0.12963        0.07969364864864865        0        
C2        C        0.166667        0.185185        0.07969364864864865        0        
C3        C        0.11111100000000002        0.203703        0.07969364864864865        0        
C4        C        0.166667        0.148148        0.07969364864864865        0        
C1        C        0.11111100000000002        0.24074099999999998        0.07969364864864865        0        
C2        C        0.166667        0.296297        0.07969364864864865        0        
C3        C        0.11111100000000002        0.314815        0.07969364864864865        0        
C4        C        0.166667        0.259259        0.07969364864864865        0        
C1        C        0.11111100000000002        0.351852        0.07969364864864865        0        
C2        C        0.166667        0.407408        0.07969364864864865        0        
C3        C        0.11111100000000002        0.42592500000000005        0.07969364864864865        0        
C4        C        0.166667        0.37037        0.07969364864864865        0        
C1        C        0.11111100000000002        0.46296300000000007        0.07969364864864865        0        
C2        C        0.166667        0.518519        0.07969364864864865        0        
C3        C        0.11111100000000002        0.537037        0.07969364864864865        0        
C4        C        0.166667        0.481481        0.07969364864864865        0        
C1        C        0.11111100000000002        0.574075        0.07969364864864865        0        
C2        C        0.166667        0.62963        0.07969364864864865        0        
C3        C        0.11111100000000002        0.648148        0.07969364864864865        0        
C4        C        0.166667        0.592592        0.07969364864864865        0        
C_FG        C        0.22222200000000003        0.018519        0.07969364864864865        0.2        
C2        C        0.277778        0.074075        0.07969364864864865        0        
C3        C        0.22222200000000003        0.092592        0.07969364864864865        0        
C4        C        0.277778        0.037037        0.07969364864864865        0        
C_FG        C        0.22222200000000003        0.12963        0.07969364864864865        0.2        
C2        C        0.277778        0.185185        0.07969364864864865        0        
C3        C        0.22222200000000003        0.203703        0.07969364864864865        0        
C4        C        0.277778        0.148148        0.07969364864864865        0        
C_FG        C        0.22222200000000003        0.24074099999999998        0.07969364864864865        0.2        
C2        C        0.277778        0.296297        0.07969364864864865        0        
C3        C        0.22222200000000003        0.314815        0.07969364864864865        0        
C4        C        0.277778        0.259259        0.07969364864864865        0        
C_FG        C        0.22222200000000003        0.351852        0.07969364864864865        0.2        
C2        C        0.277778        0.407408        0.07969364864864865        0        
C3        C        0.22222200000000003        0.42592500000000005        0.07969364864864865        0        
C4        C        0.277778        0.37037        0.07969364864864865        0        
C_FG        C        0.22222200000000003        0.46296300000000007        0.07969364864864865        0.2        
C2        C        0.277778        0.518519        0.07969364864864865        0        
C3        C        0.22222200000000003        0.537037        0.07969364864864865        0        
C4        C        0.277778        0.481481        0.07969364864864865        0        
C_FG        C        0.22222200000000003        0.574075        0.07969364864864865        0.2        
C2        C        0.277778        0.62963        0.07969364864864865        0        
C3        C        0.22222200000000003        0.648148        0.07969364864864865        0        
C4        C        0.277778        0.592592        0.07969364864864865        0        
C1        C        0.333333        0.018519        0.07969364864864865        0        
C2        C        0.388889        0.074075        0.07969364864864865        0        
C3        C        0.333333        0.092592        0.07969364864864865        0        
C4        C        0.388889        0.037037        0.07969364864864865        0        
C1        C        0.333333        0.12963        0.07969364864864865        0        
C2        C        0.388889        0.185185        0.07969364864864865        0        
C3        C        0.333333        0.203703        0.07969364864864865        0        
C4        C        0.388889        0.148148        0.07969364864864865        0        
C1        C        0.333333        0.24074099999999998        0.07969364864864865        0        
C2        C        0.388889        0.296297        0.07969364864864865        0        
C3        C        0.333333        0.314815        0.07969364864864865        0        
C4        C        0.388889        0.259259        0.07969364864864865        0        
C1        C        0.333333        0.351852        0.07969364864864865        0        
C2        C        0.388889        0.407408        0.07969364864864865        0        
C3        C        0.333333        0.42592500000000005        0.07969364864864865        0        
C4        C        0.388889        0.37037        0.07969364864864865        0        
C1        C        0.333333        0.46296300000000007        0.07969364864864865        0        
C2        C        0.388889        0.518519        0.07969364864864865        0        
C3        C        0.333333        0.537037        0.07969364864864865        0        
C4        C        0.388889        0.481481        0.07969364864864865        0        
C1        C        0.333333        0.574075        0.07969364864864865        0        
C2        C        0.388889        0.62963        0.07969364864864865        0        
C3        C        0.333333        0.648148        0.07969364864864865        0        
C4        C        0.388889        0.592592        0.07969364864864865        0        
C1        C        0.44444400000000006        0.018519        0.07969364864864865        0        
C2        C        0.5        0.074075        0.07969364864864865        0        
C3        C        0.44444400000000006        0.092592        0.07969364864864865        0        
C4        C        0.5        0.037037        0.07969364864864865        0        
C1        C        0.44444400000000006        0.12963        0.07969364864864865        0        
C2        C        0.5        0.185185        0.07969364864864865        0        
C3        C        0.44444400000000006        0.203703        0.07969364864864865        0        
C4        C        0.5        0.148148        0.07969364864864865        0        
C1        C        0.44444400000000006        0.24074099999999998        0.07969364864864865        0        
C2        C        0.5        0.296297        0.07969364864864865        0        
C3        C        0.44444400000000006        0.314815        0.07969364864864865        0        
C4        C        0.5        0.259259        0.07969364864864865        0        
C1        C        0.44444400000000006        0.351852        0.07969364864864865        0        
C2        C        0.5        0.407408        0.07969364864864865        0        
C3        C        0.44444400000000006        0.42592500000000005        0.07969364864864865        0        
C4        C        0.5        0.37037        0.07969364864864865        0        
C1        C        0.44444400000000006        0.46296300000000007        0.07969364864864865        0        
C2        C        0.5        0.518519        0.07969364864864865        0        
C3        C        0.44444400000000006        0.537037        0.07969364864864865        0        
C4        C        0.5        0.481481        0.07969364864864865        0        
C1        C        0.44444400000000006        0.574075        0.07969364864864865        0        
C2        C        0.5        0.62963        0.07969364864864865        0        
C3        C        0.44444400000000006        0.648148        0.07969364864864865        0        
C4        C        0.5        0.592592        0.07969364864864865        0        
C1        C        0.555556        0.018519        0.07969364864864865        0        
C2        C        0.611111        0.074075        0.07969364864864865        0        
C3        C        0.555556        0.092592        0.07969364864864865        0        
C4        C        0.611111        0.037037        0.07969364864864865        0        
C1        C        0.555556        0.12963        0.07969364864864865        0        
C2        C        0.611111        0.185185        0.07969364864864865        0        
C3        C        0.555556        0.203703        0.07969364864864865        0        
C4        C        0.611111        0.148148        0.07969364864864865        0        
C1        C        0.555556        0.24074099999999998        0.07969364864864865        0        
C2        C        0.611111        0.296297        0.07969364864864865        0        
C3        C        0.555556        0.314815        0.07969364864864865        0        
C4        C        0.611111        0.259259        0.07969364864864865        0        
C1        C        0.555556        0.351852        0.07969364864864865        0        
C2        C        0.611111        0.407408        0.07969364864864865        0        
C3        C        0.555556        0.42592500000000005        0.07969364864864865        0        
C4        C        0.611111        0.37037        0.07969364864864865        0        
C1        C        0.555556        0.46296300000000007        0.07969364864864865        0        
C2        C        0.611111        0.518519        0.07969364864864865        0        
C3        C        0.555556        0.537037        0.07969364864864865        0        
C4        C        0.611111        0.481481        0.07969364864864865        0        
C1        C        0.555556        0.574075        0.07969364864864865        0        
C2        C        0.611111        0.62963        0.07969364864864865        0        
C3        C        0.555556        0.648148        0.07969364864864865        0        
C4        C        0.611111        0.592592        0.07969364864864865        0        
C1        C        0.666667        0.018519        0.07969364864864865        0        
C2        C        0.722222        0.074075        0.07969364864864865        0        
C3        C        0.666667        0.092592        0.07969364864864865        0        
C4        C        0.722222        0.037037        0.07969364864864865        0        
C1        C        0.666667        0.12963        0.07969364864864865        0        
C2        C        0.722222        0.185185        0.07969364864864865        0        
C3        C        0.666667        0.203703        0.07969364864864865        0        
C4        C        0.722222        0.148148        0.07969364864864865        0        
C1        C        0.666667        0.24074099999999998        0.07969364864864865        0        
C2        C        0.722222        0.296297        0.07969364864864865        0        
C3        C        0.666667        0.314815        0.07969364864864865        0        
C4        C        0.722222        0.259259        0.07969364864864865        0        
C1        C        0.666667        0.351852        0.07969364864864865        0        
C2        C        0.722222        0.407408        0.07969364864864865        0        
C3        C        0.666667        0.42592500000000005        0.07969364864864865        0        
C4        C        0.722222        0.37037        0.07969364864864865        0        
C1        C        0.666667        0.46296300000000007        0.07969364864864865        0        
C2        C        0.722222        0.518519        0.07969364864864865        0        
C3        C        0.666667        0.537037        0.07969364864864865        0        
C4        C        0.722222        0.481481        0.07969364864864865        0        
C1        C        0.666667        0.574075        0.07969364864864865        0        
C2        C        0.722222        0.62963        0.07969364864864865        0        
C3        C        0.666667        0.648148        0.07969364864864865        0        
C4        C        0.722222        0.592592        0.07969364864864865        0        
C1        C        0.777778        0.018519        0.07969364864864865        0        
C2        C        0.833333        0.074075        0.07969364864864865        0        
C3        C        0.777778        0.092592        0.07969364864864865        0        
C4        C        0.833333        0.037037        0.07969364864864865        0        
C1        C        0.777778        0.12963        0.07969364864864865        0        
C2        C        0.833333        0.185185        0.07969364864864865        0        
C3        C        0.777778        0.203703        0.07969364864864865        0        
C4        C        0.833333        0.148148        0.07969364864864865        0        
C1        C        0.777778        0.24074099999999998        0.07969364864864865        0        
C2        C        0.833333        0.296297        0.07969364864864865        0        
C3        C        0.777778        0.314815        0.07969364864864865        0        
C4        C        0.833333        0.259259        0.07969364864864865        0        
C1        C        0.777778        0.351852        0.07969364864864865        0        
C2        C        0.833333        0.407408        0.07969364864864865        0        
C3        C        0.777778        0.42592500000000005        0.07969364864864865        0        
C4        C        0.833333        0.37037        0.07969364864864865        0        
C1        C        0.777778        0.46296300000000007        0.07969364864864865        0        
C2        C        0.833333        0.518519        0.07969364864864865        0        
C3        C        0.777778        0.537037        0.07969364864864865        0        
C4        C        0.833333        0.481481        0.07969364864864865        0        
C1        C        0.777778        0.574075        0.07969364864864865        0        
C2        C        0.833333        0.62963        0.07969364864864865        0        
C3        C        0.777778        0.648148        0.07969364864864865        0        
C4        C        0.833333        0.592592        0.07969364864864865        0        
C1        C        0.888889        0.018519        0.07969364864864865        0        
C2        C        0.944444        0.074075        0.07969364864864865        0        
C3        C        0.888889        0.092592        0.07969364864864865        0        
C4        C        0.944444        0.037037        0.07969364864864865        0        
C1        C        0.888889        0.12963        0.07969364864864865        0        
C2        C        0.944444        0.185185        0.07969364864864865        0        
C3        C        0.888889        0.203703        0.07969364864864865        0        
C4        C        0.944444        0.148148        0.07969364864864865        0        
C1        C        0.888889        0.24074099999999998        0.07969364864864865        0        
C2        C        0.944444        0.296297        0.07969364864864865        0        
C3        C        0.888889        0.314815        0.07969364864864865        0        
C4        C        0.944444        0.259259        0.07969364864864865        0        
C1        C        0.888889        0.351852        0.07969364864864865        0        
C2        C        0.944444        0.407408        0.07969364864864865        0        
C3        C        0.888889        0.42592500000000005        0.07969364864864865        0        
C4        C        0.944444        0.37037        0.07969364864864865        0        
C1        C        0.888889        0.46296300000000007        0.07969364864864865        0        
C2        C        0.944444        0.518519        0.07969364864864865        0        
C3        C        0.888889        0.537037        0.07969364864864865        0        
C4        C        0.944444        0.481481        0.07969364864864865        0        
C1        C        0.888889        0.574075        0.07969364864864865        0        
C2        C        0.944444        0.62963        0.07969364864864865        0        
C3        C        0.888889        0.648148        0.07969364864864865        0        
C4        C        0.944444        0.592592        0.07969364864864865        0        
C_FG        C        0.0        0.685186        0.07969364864864865        0.2        
C1        C        0.11111100000000002        0.685186        0.07969364864864865        0        
C_FG        C        0.22222200000000003        0.685186        0.07969364864864865        0.2        
C1        C        0.333333        0.685186        0.07969364864864865        0        
C1        C        0.44444400000000006        0.685186        0.07969364864864865        0        
C1        C        0.555556        0.685186        0.07969364864864865        0        
C1        C        0.666667        0.685186        0.07969364864864865        0        
C1        C        0.777778        0.685186        0.07969364864864865        0        
C1        C        0.888889        0.685186        0.07969364864864865        0        
C2        C        0.055556        0.740741        0.07969364864864865        0        
C2        C        0.166667        0.740741        0.07969364864864865        0        
C2        C        0.277778        0.740741        0.07969364864864865        0        
C2        C        0.388889        0.740741        0.07969364864864865        0        
C2        C        0.5        0.740741        0.07969364864864865        0        
C2        C        0.611111        0.740741        0.07969364864864865        0        
C2        C        0.722222        0.740741        0.07969364864864865        0        
C2        C        0.833333        0.740741        0.07969364864864865        0        
C2        C        0.944444        0.740741        0.07969364864864865        0        
C3        C        0.0        0.759259        0.07969364864864865        0        
C3        C        0.11111100000000002        0.759259        0.07969364864864865        0        
C3        C        0.22222200000000003        0.759259        0.07969364864864865        0        
C3        C        0.333333        0.759259        0.07969364864864865        0        
C3        C        0.44444400000000006        0.759259        0.07969364864864865        0        
C3        C        0.555556        0.759259        0.07969364864864865        0        
C3        C        0.666667        0.759259        0.07969364864864865        0        
C3        C        0.777778        0.759259        0.07969364864864865        0        
C3        C        0.888889        0.759259        0.07969364864864865        0        
C4        C        0.055556        0.703703        0.07969364864864865        0        
C4        C        0.166667        0.703703        0.07969364864864865        0        
C4        C        0.277778        0.703703        0.07969364864864865        0        
C4        C        0.388889        0.703703        0.07969364864864865        0        
C4        C        0.5        0.703703        0.07969364864864865        0        
C4        C        0.611111        0.703703        0.07969364864864865        0        
C4        C        0.722222        0.703703        0.07969364864864865        0        
C4        C        0.833333        0.703703        0.07969364864864865        0        
C4        C        0.944444        0.703703        0.07969364864864865        0        
C_FG        C        0.0        0.796297        0.07969364864864865        0.2        
C1        C        0.11111100000000002        0.796297        0.07969364864864865        0        
C_FG        C        0.22222200000000003        0.796297        0.07969364864864865        0.2        
C1        C        0.333333        0.796297        0.07969364864864865        0        
C1        C        0.44444400000000006        0.796297        0.07969364864864865        0        
C1        C        0.555556        0.796297        0.07969364864864865        0        
C1        C        0.666667        0.796297        0.07969364864864865        0        
C1        C        0.777778        0.796297        0.07969364864864865        0        
C1        C        0.888889        0.796297        0.07969364864864865        0        
C2        C        0.055556        0.851852        0.07969364864864865        0        
C2        C        0.166667        0.851852        0.07969364864864865        0        
C2        C        0.277778        0.851852        0.07969364864864865        0        
C2        C        0.388889        0.851852        0.07969364864864865        0        
C2        C        0.5        0.851852        0.07969364864864865        0        
C2        C        0.611111        0.851852        0.07969364864864865        0        
C2        C        0.722222        0.851852        0.07969364864864865        0        
C2        C        0.833333        0.851852        0.07969364864864865        0        
C2        C        0.944444        0.851852        0.07969364864864865        0        
C3        C        0.0        0.87037        0.07969364864864865        0        
C3        C        0.11111100000000002        0.87037        0.07969364864864865        0        
C3        C        0.22222200000000003        0.87037        0.07969364864864865        0        
C3        C        0.333333        0.87037        0.07969364864864865        0        
C3        C        0.44444400000000006        0.87037        0.07969364864864865        0        
C3        C        0.555556        0.87037        0.07969364864864865        0        
C3        C        0.666667        0.87037        0.07969364864864865        0        
C3        C        0.777778        0.87037        0.07969364864864865        0        
C3        C        0.888889        0.87037        0.07969364864864865        0        
C4        C        0.055556        0.814814        0.07969364864864865        0        
C4        C        0.166667        0.814814        0.07969364864864865        0        
C4        C        0.277778        0.814814        0.07969364864864865        0        
C4        C        0.388889        0.814814        0.07969364864864865        0        
C4        C        0.5        0.814814        0.07969364864864865        0        
C4        C        0.611111        0.814814        0.07969364864864865        0        
C4        C        0.722222        0.814814        0.07969364864864865        0        
C4        C        0.833333        0.814814        0.07969364864864865        0        
C4        C        0.944444        0.814814        0.07969364864864865        0        
C_FG        C        0.0        0.907408        0.07969364864864865        0.2        
C1        C        0.11111100000000002        0.907408        0.07969364864864865        0        
C_FG        C        0.22222200000000003        0.907408        0.07969364864864865        0.2        
C1        C        0.333333        0.907408        0.07969364864864865        0        
C1        C        0.44444400000000006        0.907408        0.07969364864864865        0        
C1        C        0.555556        0.907408        0.07969364864864865        0        
C1        C        0.666667        0.907408        0.07969364864864865        0        
C1        C        0.777778        0.907408        0.07969364864864865        0        
C1        C        0.888889        0.907408        0.07969364864864865        0        
C2        C        0.055556        0.962963        0.07969364864864865        0        
C2        C        0.166667        0.962963        0.07969364864864865        0        
C2        C        0.277778        0.962963        0.07969364864864865        0        
C2        C        0.388889        0.962963        0.07969364864864865        0        
C2        C        0.5        0.962963        0.07969364864864865        0        
C2        C        0.611111        0.962963        0.07969364864864865        0        
C2        C        0.722222        0.962963        0.07969364864864865        0        
C2        C        0.833333        0.962963        0.07969364864864865        0        
C2        C        0.944444        0.962963        0.07969364864864865        0        
C3        C        0.0        0.9814809999999999        0.07969364864864865        0        
C3        C        0.11111100000000002        0.9814809999999999        0.07969364864864865        0        
C3        C        0.22222200000000003        0.9814809999999999        0.07969364864864865        0        
C3        C        0.333333        0.9814809999999999        0.07969364864864865        0        
C3        C        0.44444400000000006        0.9814809999999999        0.07969364864864865        0        
C3        C        0.555556        0.9814809999999999        0.07969364864864865        0        
C3        C        0.666667        0.9814809999999999        0.07969364864864865        0        
C3        C        0.777778        0.9814809999999999        0.07969364864864865        0        
C3        C        0.888889        0.9814809999999999        0.07969364864864865        0        
C4        C        0.055556        0.925925        0.07969364864864865        0        
C4        C        0.166667        0.925925        0.07969364864864865        0        
C4        C        0.277778        0.925925        0.07969364864864865        0        
C4        C        0.388889        0.925925        0.07969364864864865        0        
C4        C        0.5        0.925925        0.07969364864864865        0        
C4        C        0.611111        0.925925        0.07969364864864865        0        
C4        C        0.722222        0.925925        0.07969364864864865        0        
C4        C        0.833333        0.925925        0.07969364864864865        0        
C4        C        0.944444        0.925925        0.07969364864864865        0        
C1        C        0.0        0.018519        0.23059464864864865        0        
C2        C        0.055556        0.074075        0.23059464864864865        0        
C3        C        0.0        0.092592        0.23059464864864865        0        
C4        C        0.055556        0.037037        0.23059464864864865        0        
C1        C        0.0        0.12963        0.23059464864864865        0        
C2        C        0.055556        0.185185        0.23059464864864865        0        
C3        C        0.0        0.203703        0.23059464864864865        0        
C4        C        0.055556        0.148148        0.23059464864864865        0        
C1        C        0.0        0.24074099999999998        0.23059464864864865        0        
C2        C        0.055556        0.296297        0.23059464864864865        0        
C3        C        0.0        0.314815        0.23059464864864865        0        
C4        C        0.055556        0.259259        0.23059464864864865        0        
C1        C        0.0        0.351852        0.23059464864864865        0        
C2        C        0.055556        0.407408        0.23059464864864865        0        
C3        C        0.0        0.42592500000000005        0.23059464864864865        0        
C4        C        0.055556        0.37037        0.23059464864864865        0        
C1        C        0.0        0.46296300000000007        0.23059464864864865        0        
C2        C        0.055556        0.518519        0.23059464864864865        0        
C3        C        0.0        0.537037        0.23059464864864865        0        
C4        C        0.055556        0.481481        0.23059464864864865        0        
C1        C        0.0        0.574075        0.23059464864864865        0        
C2        C        0.055556        0.62963        0.23059464864864865        0        
C3        C        0.0        0.648148        0.23059464864864865        0        
C4        C        0.055556        0.592592        0.23059464864864865        0        
C1        C        0.11111100000000002        0.018519        0.23059464864864865        0        
C2        C        0.166667        0.074075        0.23059464864864865        0        
C3        C        0.11111100000000002        0.092592        0.23059464864864865        0        
C4        C        0.166667        0.037037        0.23059464864864865        0        
C1        C        0.11111100000000002        0.12963        0.23059464864864865        0        
C2        C        0.166667        0.185185        0.23059464864864865        0        
C3        C        0.11111100000000002        0.203703        0.23059464864864865        0        
C4        C        0.166667        0.148148        0.23059464864864865        0        
C1        C        0.11111100000000002        0.24074099999999998        0.23059464864864865        0        
C2        C        0.166667        0.296297        0.23059464864864865        0        
C3        C        0.11111100000000002        0.314815        0.23059464864864865        0        
C4        C        0.166667        0.259259        0.23059464864864865        0        
C1        C        0.11111100000000002        0.351852        0.23059464864864865        0        
C2        C        0.166667        0.407408        0.23059464864864865        0        
C3        C        0.11111100000000002        0.42592500000000005        0.23059464864864865        0        
C4        C        0.166667        0.37037        0.23059464864864865        0        
C1        C        0.11111100000000002        0.46296300000000007        0.23059464864864865        0        
C2        C        0.166667        0.518519        0.23059464864864865        0        
C3        C        0.11111100000000002        0.537037        0.23059464864864865        0        
C4        C        0.166667        0.481481        0.23059464864864865        0        
C1        C        0.11111100000000002        0.574075        0.23059464864864865        0        
C2        C        0.166667        0.62963        0.23059464864864865        0        
C3        C        0.11111100000000002        0.648148        0.23059464864864865        0        
C4        C        0.166667        0.592592        0.23059464864864865        0        
C1        C        0.22222200000000003        0.018519        0.23059464864864865        0        
C2        C        0.277778        0.074075        0.23059464864864865        0        
C3        C        0.22222200000000003        0.092592        0.23059464864864865        0        
C4        C        0.277778        0.037037        0.23059464864864865        0        
C1        C        0.22222200000000003        0.12963        0.23059464864864865        0        
C2        C        0.277778        0.185185        0.23059464864864865        0        
C3        C        0.22222200000000003        0.203703        0.23059464864864865        0        
C4        C        0.277778        0.148148        0.23059464864864865        0        
C1        C        0.22222200000000003        0.24074099999999998        0.23059464864864865        0        
C2        C        0.277778        0.296297        0.23059464864864865        0        
C3        C        0.22222200000000003        0.314815        0.23059464864864865        0        
C4        C        0.277778        0.259259        0.23059464864864865        0        
C1        C        0.22222200000000003        0.351852        0.23059464864864865        0        
C2        C        0.277778        0.407408        0.23059464864864865        0        
C3        C        0.22222200000000003        0.42592500000000005        0.23059464864864865        0        
C4        C        0.277778        0.37037        0.23059464864864865        0        
C1        C        0.22222200000000003        0.46296300000000007        0.23059464864864865        0        
C2        C        0.277778        0.518519        0.23059464864864865        0        
C3        C        0.22222200000000003        0.537037        0.23059464864864865        0        
C4        C        0.277778        0.481481        0.23059464864864865        0        
C1        C        0.22222200000000003        0.574075        0.23059464864864865        0        
C2        C        0.277778        0.62963        0.23059464864864865        0        
C3        C        0.22222200000000003        0.648148        0.23059464864864865        0        
C4        C        0.277778        0.592592        0.23059464864864865        0        
C1        C        0.333333        0.018519        0.23059464864864865        0        
C2        C        0.388889        0.074075        0.23059464864864865        0        
C3        C        0.333333        0.092592        0.23059464864864865        0        
C4        C        0.388889        0.037037        0.23059464864864865        0        
C1        C        0.333333        0.12963        0.23059464864864865        0        
C2        C        0.388889        0.185185        0.23059464864864865        0        
C3        C        0.333333        0.203703        0.23059464864864865        0        
C4        C        0.388889        0.148148        0.23059464864864865        0        
C1        C        0.333333        0.24074099999999998        0.23059464864864865        0        
C2        C        0.388889        0.296297        0.23059464864864865        0        
C3        C        0.333333        0.314815        0.23059464864864865        0        
C4        C        0.388889        0.259259        0.23059464864864865        0        
C1        C        0.333333        0.351852        0.23059464864864865        0        
C2        C        0.388889        0.407408        0.23059464864864865        0        
C3        C        0.333333        0.42592500000000005        0.23059464864864865        0        
C4        C        0.388889        0.37037        0.23059464864864865        0        
C1        C        0.333333        0.46296300000000007        0.23059464864864865        0        
C2        C        0.388889        0.518519        0.23059464864864865        0        
C3        C        0.333333        0.537037        0.23059464864864865        0        
C4        C        0.388889        0.481481        0.23059464864864865        0        
C1        C        0.333333        0.574075        0.23059464864864865        0        
C2        C        0.388889        0.62963        0.23059464864864865        0        
C3        C        0.333333        0.648148        0.23059464864864865        0        
C4        C        0.388889        0.592592        0.23059464864864865        0        
C1        C        0.44444400000000006        0.018519        0.23059464864864865        0        
C2        C        0.5        0.074075        0.23059464864864865        0        
C3        C        0.44444400000000006        0.092592        0.23059464864864865        0        
C4        C        0.5        0.037037        0.23059464864864865        0        
C1        C        0.44444400000000006        0.12963        0.23059464864864865        0        
C2        C        0.5        0.185185        0.23059464864864865        0        
C3        C        0.44444400000000006        0.203703        0.23059464864864865        0        
C4        C        0.5        0.148148        0.23059464864864865        0        
C1        C        0.44444400000000006        0.24074099999999998        0.23059464864864865        0        
C2        C        0.5        0.296297        0.23059464864864865        0        
C3        C        0.44444400000000006        0.314815        0.23059464864864865        0        
C4        C        0.5        0.259259        0.23059464864864865        0        
C1        C        0.44444400000000006        0.351852        0.23059464864864865        0        
C2        C        0.5        0.407408        0.23059464864864865        0        
C3        C        0.44444400000000006        0.42592500000000005        0.23059464864864865        0        
C4        C        0.5        0.37037        0.23059464864864865        0        
C1        C        0.44444400000000006        0.46296300000000007        0.23059464864864865        0        
C2        C        0.5        0.518519        0.23059464864864865        0        
C3        C        0.44444400000000006        0.537037        0.23059464864864865        0        
C4        C        0.5        0.481481        0.23059464864864865        0        
C1        C        0.44444400000000006        0.574075        0.23059464864864865        0        
C2        C        0.5        0.62963        0.23059464864864865        0        
C3        C        0.44444400000000006        0.648148        0.23059464864864865        0        
C4        C        0.5        0.592592        0.23059464864864865        0        
C1        C        0.555556        0.018519        0.23059464864864865        0        
C2        C        0.611111        0.074075        0.23059464864864865        0        
C3        C        0.555556        0.092592        0.23059464864864865        0        
C4        C        0.611111        0.037037        0.23059464864864865        0        
C1        C        0.555556        0.12963        0.23059464864864865        0        
C2        C        0.611111        0.185185        0.23059464864864865        0        
C3        C        0.555556        0.203703        0.23059464864864865        0        
C4        C        0.611111        0.148148        0.23059464864864865        0        
C1        C        0.555556        0.24074099999999998        0.23059464864864865        0        
C2        C        0.611111        0.296297        0.23059464864864865        0        
C3        C        0.555556        0.314815        0.23059464864864865        0        
C4        C        0.611111        0.259259        0.23059464864864865        0        
C1        C        0.555556        0.351852        0.23059464864864865        0        
C2        C        0.611111        0.407408        0.23059464864864865        0        
C3        C        0.555556        0.42592500000000005        0.23059464864864865        0        
C4        C        0.611111        0.37037        0.23059464864864865        0        
C1        C        0.555556        0.46296300000000007        0.23059464864864865        0        
C2        C        0.611111        0.518519        0.23059464864864865        0        
C3        C        0.555556        0.537037        0.23059464864864865        0        
C4        C        0.611111        0.481481        0.23059464864864865        0        
C1        C        0.555556        0.574075        0.23059464864864865        0        
C2        C        0.611111        0.62963        0.23059464864864865        0        
C3        C        0.555556        0.648148        0.23059464864864865        0        
C4        C        0.611111        0.592592        0.23059464864864865        0        
C1        C        0.666667        0.018519        0.23059464864864865        0        
C2        C        0.722222        0.074075        0.23059464864864865        0        
C3        C        0.666667        0.092592        0.23059464864864865        0        
C4        C        0.722222        0.037037        0.23059464864864865        0        
C1        C        0.666667        0.12963        0.23059464864864865        0        
C2        C        0.722222        0.185185        0.23059464864864865        0        
C3        C        0.666667        0.203703        0.23059464864864865        0        
C4        C        0.722222        0.148148        0.23059464864864865        0        
C1        C        0.666667        0.24074099999999998        0.23059464864864865        0        
C2        C        0.722222        0.296297        0.23059464864864865        0        
C3        C        0.666667        0.314815        0.23059464864864865        0        
C4        C        0.722222        0.259259        0.23059464864864865        0        
C1        C        0.666667        0.351852        0.23059464864864865        0        
C2        C        0.722222        0.407408        0.23059464864864865        0        
C3        C        0.666667        0.42592500000000005        0.23059464864864865        0        
C4        C        0.722222        0.37037        0.23059464864864865        0        
C1        C        0.666667        0.46296300000000007        0.23059464864864865        0        
C2        C        0.722222        0.518519        0.23059464864864865        0        
C3        C        0.666667        0.537037        0.23059464864864865        0        
C4        C        0.722222        0.481481        0.23059464864864865        0        
C1        C        0.666667        0.574075        0.23059464864864865        0        
C2        C        0.722222        0.62963        0.23059464864864865        0        
C3        C        0.666667        0.648148        0.23059464864864865        0        
C4        C        0.722222        0.592592        0.23059464864864865        0        
C1        C        0.777778        0.018519        0.23059464864864865        0        
C2        C        0.833333        0.074075        0.23059464864864865        0        
C3        C        0.777778        0.092592        0.23059464864864865        0        
C4        C        0.833333        0.037037        0.23059464864864865        0        
C1        C        0.777778        0.12963        0.23059464864864865        0        
C2        C        0.833333        0.185185        0.23059464864864865        0        
C3        C        0.777778        0.203703        0.23059464864864865        0        
C4        C        0.833333        0.148148        0.23059464864864865        0        
C1        C        0.777778        0.24074099999999998        0.23059464864864865        0        
C2        C        0.833333        0.296297        0.23059464864864865        0        
C3        C        0.777778        0.314815        0.23059464864864865        0        
C4        C        0.833333        0.259259        0.23059464864864865        0        
C1        C        0.777778        0.351852        0.23059464864864865        0        
C2        C        0.833333        0.407408        0.23059464864864865        0        
C3        C        0.777778        0.42592500000000005        0.23059464864864865        0        
C4        C        0.833333        0.37037        0.23059464864864865        0        
C1        C        0.777778        0.46296300000000007        0.23059464864864865        0        
C2        C        0.833333        0.518519        0.23059464864864865        0        
C3        C        0.777778        0.537037        0.23059464864864865        0        
C4        C        0.833333        0.481481        0.23059464864864865        0        
C1        C        0.777778        0.574075        0.23059464864864865        0        
C2        C        0.833333        0.62963        0.23059464864864865        0        
C3        C        0.777778        0.648148        0.23059464864864865        0        
C4        C        0.833333        0.592592        0.23059464864864865        0        
C1        C        0.888889        0.018519        0.23059464864864865        0        
C2        C        0.944444        0.074075        0.23059464864864865        0        
C3        C        0.888889        0.092592        0.23059464864864865        0        
C4        C        0.944444        0.037037        0.23059464864864865        0        
C1        C        0.888889        0.12963        0.23059464864864865        0        
C2        C        0.944444        0.185185        0.23059464864864865        0        
C3        C        0.888889        0.203703        0.23059464864864865        0        
C4        C        0.944444        0.148148        0.23059464864864865        0        
C1        C        0.888889        0.24074099999999998        0.23059464864864865        0        
C2        C        0.944444        0.296297        0.23059464864864865        0        
C3        C        0.888889        0.314815        0.23059464864864865        0        
C4        C        0.944444        0.259259        0.23059464864864865        0        
C1        C        0.888889        0.351852        0.23059464864864865        0        
C2        C        0.944444        0.407408        0.23059464864864865        0        
C3        C        0.888889        0.42592500000000005        0.23059464864864865        0        
C4        C        0.944444        0.37037        0.23059464864864865        0        
C1        C        0.888889        0.46296300000000007        0.23059464864864865        0        
C2        C        0.944444        0.518519        0.23059464864864865        0        
C3        C        0.888889        0.537037        0.23059464864864865        0        
C4        C        0.944444        0.481481        0.23059464864864865        0        
C1        C        0.888889        0.574075        0.23059464864864865        0        
C2        C        0.944444        0.62963        0.23059464864864865        0        
C3        C        0.888889        0.648148        0.23059464864864865        0        
C4        C        0.944444        0.592592        0.23059464864864865        0        
C1        C        0.0        0.685186        0.23059464864864865        0        
C1        C        0.11111100000000002        0.685186        0.23059464864864865        0        
C1        C        0.22222200000000003        0.685186        0.23059464864864865        0        
C1        C        0.333333        0.685186        0.23059464864864865        0        
C1        C        0.44444400000000006        0.685186        0.23059464864864865        0        
C1        C        0.555556        0.685186        0.23059464864864865        0        
C1        C        0.666667        0.685186        0.23059464864864865        0        
C1        C        0.777778        0.685186        0.23059464864864865        0        
C1        C        0.888889        0.685186        0.23059464864864865        0        
C2        C        0.055556        0.740741        0.23059464864864865        0        
C2        C        0.166667        0.740741        0.23059464864864865        0        
C2        C        0.277778        0.740741        0.23059464864864865        0        
C2        C        0.388889        0.740741        0.23059464864864865        0        
C2        C        0.5        0.740741        0.23059464864864865        0        
C2        C        0.611111        0.740741        0.23059464864864865        0        
C2        C        0.722222        0.740741        0.23059464864864865        0        
C2        C        0.833333        0.740741        0.23059464864864865        0        
C2        C        0.944444        0.740741        0.23059464864864865        0        
C3        C        0.0        0.759259        0.23059464864864865        0        
C3        C        0.11111100000000002        0.759259        0.23059464864864865        0        
C3        C        0.22222200000000003        0.759259        0.23059464864864865        0        
C3        C        0.333333        0.759259        0.23059464864864865        0        
C3        C        0.44444400000000006        0.759259        0.23059464864864865        0        
C3        C        0.555556        0.759259        0.23059464864864865        0        
C3        C        0.666667        0.759259        0.23059464864864865        0        
C3        C        0.777778        0.759259        0.23059464864864865        0        
C3        C        0.888889        0.759259        0.23059464864864865        0        
C4        C        0.055556        0.703703        0.23059464864864865        0        
C4        C        0.166667        0.703703        0.23059464864864865        0        
C4        C        0.277778        0.703703        0.23059464864864865        0        
C4        C        0.388889        0.703703        0.23059464864864865        0        
C4        C        0.5        0.703703        0.23059464864864865        0        
C4        C        0.611111        0.703703        0.23059464864864865        0        
C4        C        0.722222        0.703703        0.23059464864864865        0        
C4        C        0.833333        0.703703        0.23059464864864865        0        
C4        C        0.944444        0.703703        0.23059464864864865        0        
C1        C        0.0        0.796297        0.23059464864864865        0        
C1        C        0.11111100000000002        0.796297        0.23059464864864865        0        
C1        C        0.22222200000000003        0.796297        0.23059464864864865        0        
C1        C        0.333333        0.796297        0.23059464864864865        0        
C1        C        0.44444400000000006        0.796297        0.23059464864864865        0        
C1        C        0.555556        0.796297        0.23059464864864865        0        
C1        C        0.666667        0.796297        0.23059464864864865        0        
C1        C        0.777778        0.796297        0.23059464864864865        0        
C1        C        0.888889        0.796297        0.23059464864864865        0        
C2        C        0.055556        0.851852        0.23059464864864865        0        
C2        C        0.166667        0.851852        0.23059464864864865        0        
C2        C        0.277778        0.851852        0.23059464864864865        0        
C2        C        0.388889        0.851852        0.23059464864864865        0        
C2        C        0.5        0.851852        0.23059464864864865        0        
C2        C        0.611111        0.851852        0.23059464864864865        0        
C2        C        0.722222        0.851852        0.23059464864864865        0        
C2        C        0.833333        0.851852        0.23059464864864865        0        
C2        C        0.944444        0.851852        0.23059464864864865        0        
C3        C        0.0        0.87037        0.23059464864864865        0        
C3        C        0.11111100000000002        0.87037        0.23059464864864865        0        
C3        C        0.22222200000000003        0.87037        0.23059464864864865        0        
C3        C        0.333333        0.87037        0.23059464864864865        0        
C3        C        0.44444400000000006        0.87037        0.23059464864864865        0        
C3        C        0.555556        0.87037        0.23059464864864865        0        
C3        C        0.666667        0.87037        0.23059464864864865        0        
C3        C        0.777778        0.87037        0.23059464864864865        0        
C3        C        0.888889        0.87037        0.23059464864864865        0        
C4        C        0.055556        0.814814        0.23059464864864865        0        
C4        C        0.166667        0.814814        0.23059464864864865        0        
C4        C        0.277778        0.814814        0.23059464864864865        0        
C4        C        0.388889        0.814814        0.23059464864864865        0        
C4        C        0.5        0.814814        0.23059464864864865        0        
C4        C        0.611111        0.814814        0.23059464864864865        0        
C4        C        0.722222        0.814814        0.23059464864864865        0        
C4        C        0.833333        0.814814        0.23059464864864865        0        
C4        C        0.944444        0.814814        0.23059464864864865        0        
C1        C        0.0        0.907408        0.23059464864864865        0        
C1        C        0.11111100000000002        0.907408        0.23059464864864865        0        
C1        C        0.22222200000000003        0.907408        0.23059464864864865        0        
C1        C        0.333333        0.907408        0.23059464864864865        0        
C1        C        0.44444400000000006        0.907408        0.23059464864864865        0        
C1        C        0.555556        0.907408        0.23059464864864865        0        
C1        C        0.666667        0.907408        0.23059464864864865        0        
C1        C        0.777778        0.907408        0.23059464864864865        0        
C1        C        0.888889        0.907408        0.23059464864864865        0        
C2        C        0.055556        0.962963        0.23059464864864865        0        
C2        C        0.166667        0.962963        0.23059464864864865        0        
C2        C        0.277778        0.962963        0.23059464864864865        0        
C2        C        0.388889        0.962963        0.23059464864864865        0        
C2        C        0.5        0.962963        0.23059464864864865        0        
C2        C        0.611111        0.962963        0.23059464864864865        0        
C2        C        0.722222        0.962963        0.23059464864864865        0        
C2        C        0.833333        0.962963        0.23059464864864865        0        
C2        C        0.944444        0.962963        0.23059464864864865        0        
C3        C        0.0        0.9814809999999999        0.23059464864864865        0        
C3        C        0.11111100000000002        0.9814809999999999        0.23059464864864865        0        
C3        C        0.22222200000000003        0.9814809999999999        0.23059464864864865        0        
C3        C        0.333333        0.9814809999999999        0.23059464864864865        0        
C3        C        0.44444400000000006        0.9814809999999999        0.23059464864864865        0        
C3        C        0.555556        0.9814809999999999        0.23059464864864865        0        
C3        C        0.666667        0.9814809999999999        0.23059464864864865        0        
C3        C        0.777778        0.9814809999999999        0.23059464864864865        0        
C3        C        0.888889        0.9814809999999999        0.23059464864864865        0        
C4        C        0.055556        0.925925        0.23059464864864865        0        
C4        C        0.166667        0.925925        0.23059464864864865        0        
C4        C        0.277778        0.925925        0.23059464864864865        0        
C4        C        0.388889        0.925925        0.23059464864864865        0        
C4        C        0.5        0.925925        0.23059464864864865        0        
C4        C        0.611111        0.925925        0.23059464864864865        0        
C4        C        0.722222        0.925925        0.23059464864864865        0        
C4        C        0.833333        0.925925        0.23059464864864865        0        
C4        C        0.944444        0.925925        0.23059464864864865        0        
C_FG        C        0.0        0.018519        0.38149564864864866        0.2        
C2        C        0.055556        0.074075        0.38149564864864866        0        
C3        C        0.0        0.092592        0.38149564864864866        0        
C4        C        0.055556        0.037037        0.38149564864864866        0        
C_FG        C        0.0        0.12963        0.38149564864864866        0.2        
C2        C        0.055556        0.185185        0.38149564864864866        0        
C3        C        0.0        0.203703        0.38149564864864866        0        
C4        C        0.055556        0.148148        0.38149564864864866        0        
C_FG        C        0.0        0.24074099999999998        0.38149564864864866        0.2        
C2        C        0.055556        0.296297        0.38149564864864866        0        
C3        C        0.0        0.314815        0.38149564864864866        0        
C4        C        0.055556        0.259259        0.38149564864864866        0        
C_FG        C        0.0        0.351852        0.38149564864864866        0.2        
C2        C        0.055556        0.407408        0.38149564864864866        0        
C3        C        0.0        0.42592500000000005        0.38149564864864866        0        
C4        C        0.055556        0.37037        0.38149564864864866        0        
C_FG        C        0.0        0.46296300000000007        0.38149564864864866        0.2        
C2        C        0.055556        0.518519        0.38149564864864866        0        
C3        C        0.0        0.537037        0.38149564864864866        0        
C4        C        0.055556        0.481481        0.38149564864864866        0        
C_FG        C        0.0        0.574075        0.38149564864864866        0.2        
C2        C        0.055556        0.62963        0.38149564864864866        0        
C3        C        0.0        0.648148        0.38149564864864866        0        
C4        C        0.055556        0.592592        0.38149564864864866        0        
C1        C        0.11111100000000002        0.018519        0.38149564864864866        0        
C2        C        0.166667        0.074075        0.38149564864864866        0        
C3        C        0.11111100000000002        0.092592        0.38149564864864866        0        
C4        C        0.166667        0.037037        0.38149564864864866        0        
C1        C        0.11111100000000002        0.12963        0.38149564864864866        0        
C2        C        0.166667        0.185185        0.38149564864864866        0        
C3        C        0.11111100000000002        0.203703        0.38149564864864866        0        
C4        C        0.166667        0.148148        0.38149564864864866        0        
C1        C        0.11111100000000002        0.24074099999999998        0.38149564864864866        0        
C2        C        0.166667        0.296297        0.38149564864864866        0        
C3        C        0.11111100000000002        0.314815        0.38149564864864866        0        
C4        C        0.166667        0.259259        0.38149564864864866        0        
C1        C        0.11111100000000002        0.351852        0.38149564864864866        0        
C2        C        0.166667        0.407408        0.38149564864864866        0        
C3        C        0.11111100000000002        0.42592500000000005        0.38149564864864866        0        
C4        C        0.166667        0.37037        0.38149564864864866        0        
C1        C        0.11111100000000002        0.46296300000000007        0.38149564864864866        0        
C2        C        0.166667        0.518519        0.38149564864864866        0        
C3        C        0.11111100000000002        0.537037        0.38149564864864866        0        
C4        C        0.166667        0.481481        0.38149564864864866        0        
C1        C        0.11111100000000002        0.574075        0.38149564864864866        0        
C2        C        0.166667        0.62963        0.38149564864864866        0        
C3        C        0.11111100000000002        0.648148        0.38149564864864866        0        
C4        C        0.166667        0.592592        0.38149564864864866        0        
C_FG        C        0.22222200000000003        0.018519        0.38149564864864866        0.2        
C2        C        0.277778        0.074075        0.38149564864864866        0        
C3        C        0.22222200000000003        0.092592        0.38149564864864866        0        
C4        C        0.277778        0.037037        0.38149564864864866        0        
C_FG        C        0.22222200000000003        0.12963        0.38149564864864866        0.2        
C2        C        0.277778        0.185185        0.38149564864864866        0        
C3        C        0.22222200000000003        0.203703        0.38149564864864866        0        
C4        C        0.277778        0.148148        0.38149564864864866        0        
C_FG        C        0.22222200000000003        0.24074099999999998        0.38149564864864866        0.2        
C2        C        0.277778        0.296297        0.38149564864864866        0        
C3        C        0.22222200000000003        0.314815        0.38149564864864866        0        
C4        C        0.277778        0.259259        0.38149564864864866        0        
C_FG        C        0.22222200000000003        0.351852        0.38149564864864866        0.2        
C2        C        0.277778        0.407408        0.38149564864864866        0        
C3        C        0.22222200000000003        0.42592500000000005        0.38149564864864866        0        
C4        C        0.277778        0.37037        0.38149564864864866        0        
C_FG        C        0.22222200000000003        0.46296300000000007        0.38149564864864866        0.2        
C2        C        0.277778        0.518519        0.38149564864864866        0        
C3        C        0.22222200000000003        0.537037        0.38149564864864866        0        
C4        C        0.277778        0.481481        0.38149564864864866        0        
C_FG        C        0.22222200000000003        0.574075        0.38149564864864866        0.2        
C2        C        0.277778        0.62963        0.38149564864864866        0        
C3        C        0.22222200000000003        0.648148        0.38149564864864866        0        
C4        C        0.277778        0.592592        0.38149564864864866        0        
C1        C        0.333333        0.018519        0.38149564864864866        0        
C2        C        0.388889        0.074075        0.38149564864864866        0        
C3        C        0.333333        0.092592        0.38149564864864866        0        
C4        C        0.388889        0.037037        0.38149564864864866        0        
C1        C        0.333333        0.12963        0.38149564864864866        0        
C2        C        0.388889        0.185185        0.38149564864864866        0        
C3        C        0.333333        0.203703        0.38149564864864866        0        
C4        C        0.388889        0.148148        0.38149564864864866        0        
C1        C        0.333333        0.24074099999999998        0.38149564864864866        0        
C2        C        0.388889        0.296297        0.38149564864864866        0        
C3        C        0.333333        0.314815        0.38149564864864866        0        
C4        C        0.388889        0.259259        0.38149564864864866        0        
C1        C        0.333333        0.351852        0.38149564864864866        0        
C2        C        0.388889        0.407408        0.38149564864864866        0        
C3        C        0.333333        0.42592500000000005        0.38149564864864866        0        
C4        C        0.388889        0.37037        0.38149564864864866        0        
C1        C        0.333333        0.46296300000000007        0.38149564864864866        0        
C2        C        0.388889        0.518519        0.38149564864864866        0        
C3        C        0.333333        0.537037        0.38149564864864866        0        
C4        C        0.388889        0.481481        0.38149564864864866        0        
C1        C        0.333333        0.574075        0.38149564864864866        0        
C2        C        0.388889        0.62963        0.38149564864864866        0        
C3        C        0.333333        0.648148        0.38149564864864866        0        
C4        C        0.388889        0.592592        0.38149564864864866        0        
C1        C        0.44444400000000006        0.018519        0.38149564864864866        0        
C2        C        0.5        0.074075        0.38149564864864866        0        
C3        C        0.44444400000000006        0.092592        0.38149564864864866        0        
C4        C        0.5        0.037037        0.38149564864864866        0        
C1        C        0.44444400000000006        0.12963        0.38149564864864866        0        
C2        C        0.5        0.185185        0.38149564864864866        0        
C3        C        0.44444400000000006        0.203703        0.38149564864864866        0        
C4        C        0.5        0.148148        0.38149564864864866        0        
C1        C        0.44444400000000006        0.24074099999999998        0.38149564864864866        0        
C2        C        0.5        0.296297        0.38149564864864866        0        
C3        C        0.44444400000000006        0.314815        0.38149564864864866        0        
C4        C        0.5        0.259259        0.38149564864864866        0        
C1        C        0.44444400000000006        0.351852        0.38149564864864866        0        
C2        C        0.5        0.407408        0.38149564864864866        0        
C3        C        0.44444400000000006        0.42592500000000005        0.38149564864864866        0        
C4        C        0.5        0.37037        0.38149564864864866        0        
C1        C        0.44444400000000006        0.46296300000000007        0.38149564864864866        0        
C2        C        0.5        0.518519        0.38149564864864866        0        
C3        C        0.44444400000000006        0.537037        0.38149564864864866        0        
C4        C        0.5        0.481481        0.38149564864864866        0        
C1        C        0.44444400000000006        0.574075        0.38149564864864866        0        
C2        C        0.5        0.62963        0.38149564864864866        0        
C3        C        0.44444400000000006        0.648148        0.38149564864864866        0        
C4        C        0.5        0.592592        0.38149564864864866        0        
C1        C        0.555556        0.018519        0.38149564864864866        0        
C2        C        0.611111        0.074075        0.38149564864864866        0        
C3        C        0.555556        0.092592        0.38149564864864866        0        
C4        C        0.611111        0.037037        0.38149564864864866        0        
C1        C        0.555556        0.12963        0.38149564864864866        0        
C2        C        0.611111        0.185185        0.38149564864864866        0        
C3        C        0.555556        0.203703        0.38149564864864866        0        
C4        C        0.611111        0.148148        0.38149564864864866        0        
C1        C        0.555556        0.24074099999999998        0.38149564864864866        0        
C2        C        0.611111        0.296297        0.38149564864864866        0        
C3        C        0.555556        0.314815        0.38149564864864866        0        
C4        C        0.611111        0.259259        0.38149564864864866        0        
C1        C        0.555556        0.351852        0.38149564864864866        0        
C2        C        0.611111        0.407408        0.38149564864864866        0        
C3        C        0.555556        0.42592500000000005        0.38149564864864866        0        
C4        C        0.611111        0.37037        0.38149564864864866        0        
C1        C        0.555556        0.46296300000000007        0.38149564864864866        0        
C2        C        0.611111        0.518519        0.38149564864864866        0        
C3        C        0.555556        0.537037        0.38149564864864866        0        
C4        C        0.611111        0.481481        0.38149564864864866        0        
C1        C        0.555556        0.574075        0.38149564864864866        0        
C2        C        0.611111        0.62963        0.38149564864864866        0        
C3        C        0.555556        0.648148        0.38149564864864866        0        
C4        C        0.611111        0.592592        0.38149564864864866        0        
C1        C        0.666667        0.018519        0.38149564864864866        0        
C2        C        0.722222        0.074075        0.38149564864864866        0        
C3        C        0.666667        0.092592        0.38149564864864866        0        
C4        C        0.722222        0.037037        0.38149564864864866        0        
C1        C        0.666667        0.12963        0.38149564864864866        0        
C2        C        0.722222        0.185185        0.38149564864864866        0        
C3        C        0.666667        0.203703        0.38149564864864866        0        
C4        C        0.722222        0.148148        0.38149564864864866        0        
C1        C        0.666667        0.24074099999999998        0.38149564864864866        0        
C2        C        0.722222        0.296297        0.38149564864864866        0        
C3        C        0.666667        0.314815        0.38149564864864866        0        
C4        C        0.722222        0.259259        0.38149564864864866        0        
C1        C        0.666667        0.351852        0.38149564864864866        0        
C2        C        0.722222        0.407408        0.38149564864864866        0        
C3        C        0.666667        0.42592500000000005        0.38149564864864866        0        
C4        C        0.722222        0.37037        0.38149564864864866        0        
C1        C        0.666667        0.46296300000000007        0.38149564864864866        0        
C2        C        0.722222        0.518519        0.38149564864864866        0        
C3        C        0.666667        0.537037        0.38149564864864866        0        
C4        C        0.722222        0.481481        0.38149564864864866        0        
C1        C        0.666667        0.574075        0.38149564864864866        0        
C2        C        0.722222        0.62963        0.38149564864864866        0        
C3        C        0.666667        0.648148        0.38149564864864866        0        
C4        C        0.722222        0.592592        0.38149564864864866        0        
C1        C        0.777778        0.018519        0.38149564864864866        0        
C2        C        0.833333        0.074075        0.38149564864864866        0        
C3        C        0.777778        0.092592        0.38149564864864866        0        
C4        C        0.833333        0.037037        0.38149564864864866        0        
C1        C        0.777778        0.12963        0.38149564864864866        0        
C2        C        0.833333        0.185185        0.38149564864864866        0        
C3        C        0.777778        0.203703        0.38149564864864866        0        
C4        C        0.833333        0.148148        0.38149564864864866        0        
C1        C        0.777778        0.24074099999999998        0.38149564864864866        0        
C2        C        0.833333        0.296297        0.38149564864864866        0        
C3        C        0.777778        0.314815        0.38149564864864866        0        
C4        C        0.833333        0.259259        0.38149564864864866        0        
C1        C        0.777778        0.351852        0.38149564864864866        0        
C2        C        0.833333        0.407408        0.38149564864864866        0        
C3        C        0.777778        0.42592500000000005        0.38149564864864866        0        
C4        C        0.833333        0.37037        0.38149564864864866        0        
C1        C        0.777778        0.46296300000000007        0.38149564864864866        0        
C2        C        0.833333        0.518519        0.38149564864864866        0        
C3        C        0.777778        0.537037        0.38149564864864866        0        
C4        C        0.833333        0.481481        0.38149564864864866        0        
C1        C        0.777778        0.574075        0.38149564864864866        0        
C2        C        0.833333        0.62963        0.38149564864864866        0        
C3        C        0.777778        0.648148        0.38149564864864866        0        
C4        C        0.833333        0.592592        0.38149564864864866        0        
C1        C        0.888889        0.018519        0.38149564864864866        0        
C2        C        0.944444        0.074075        0.38149564864864866        0        
C3        C        0.888889        0.092592        0.38149564864864866        0        
C4        C        0.944444        0.037037        0.38149564864864866        0        
C1        C        0.888889        0.12963        0.38149564864864866        0        
C2        C        0.944444        0.185185        0.38149564864864866        0        
C3        C        0.888889        0.203703        0.38149564864864866        0        
C4        C        0.944444        0.148148        0.38149564864864866        0        
C1        C        0.888889        0.24074099999999998        0.38149564864864866        0        
C2        C        0.944444        0.296297        0.38149564864864866        0        
C3        C        0.888889        0.314815        0.38149564864864866        0        
C4        C        0.944444        0.259259        0.38149564864864866        0        
C1        C        0.888889        0.351852        0.38149564864864866        0        
C2        C        0.944444        0.407408        0.38149564864864866        0        
C3        C        0.888889        0.42592500000000005        0.38149564864864866        0        
C4        C        0.944444        0.37037        0.38149564864864866        0        
C1        C        0.888889        0.46296300000000007        0.38149564864864866        0        
C2        C        0.944444        0.518519        0.38149564864864866        0        
C3        C        0.888889        0.537037        0.38149564864864866        0        
C4        C        0.944444        0.481481        0.38149564864864866        0        
C1        C        0.888889        0.574075        0.38149564864864866        0        
C2        C        0.944444        0.62963        0.38149564864864866        0        
C3        C        0.888889        0.648148        0.38149564864864866        0        
C4        C        0.944444        0.592592        0.38149564864864866        0        
C_FG        C        0.0        0.685186        0.38149564864864866        0.2        
C1        C        0.11111100000000002        0.685186        0.38149564864864866        0        
C_FG        C        0.22222200000000003        0.685186        0.38149564864864866        0.2        
C1        C        0.333333        0.685186        0.38149564864864866        0        
C1        C        0.44444400000000006        0.685186        0.38149564864864866        0        
C1        C        0.555556        0.685186        0.38149564864864866        0        
C1        C        0.666667        0.685186        0.38149564864864866        0        
C1        C        0.777778        0.685186        0.38149564864864866        0        
C1        C        0.888889        0.685186        0.38149564864864866        0        
C2        C        0.055556        0.740741        0.38149564864864866        0        
C2        C        0.166667        0.740741        0.38149564864864866        0        
C2        C        0.277778        0.740741        0.38149564864864866        0        
C2        C        0.388889        0.740741        0.38149564864864866        0        
C2        C        0.5        0.740741        0.38149564864864866        0        
C2        C        0.611111        0.740741        0.38149564864864866        0        
C2        C        0.722222        0.740741        0.38149564864864866        0        
C2        C        0.833333        0.740741        0.38149564864864866        0        
C2        C        0.944444        0.740741        0.38149564864864866        0        
C3        C        0.0        0.759259        0.38149564864864866        0        
C3        C        0.11111100000000002        0.759259        0.38149564864864866        0        
C3        C        0.22222200000000003        0.759259        0.38149564864864866        0        
C3        C        0.333333        0.759259        0.38149564864864866        0        
C3        C        0.44444400000000006        0.759259        0.38149564864864866        0        
C3        C        0.555556        0.759259        0.38149564864864866        0        
C3        C        0.666667        0.759259        0.38149564864864866        0        
C3        C        0.777778        0.759259        0.38149564864864866        0        
C3        C        0.888889        0.759259        0.38149564864864866        0        
C4        C        0.055556        0.703703        0.38149564864864866        0        
C4        C        0.166667        0.703703        0.38149564864864866        0        
C4        C        0.277778        0.703703        0.38149564864864866        0        
C4        C        0.388889        0.703703        0.38149564864864866        0        
C4        C        0.5        0.703703        0.38149564864864866        0        
C4        C        0.611111        0.703703        0.38149564864864866        0        
C4        C        0.722222        0.703703        0.38149564864864866        0        
C4        C        0.833333        0.703703        0.38149564864864866        0        
C4        C        0.944444        0.703703        0.38149564864864866        0        
C_FG        C        0.0        0.796297        0.38149564864864866        0.2        
C1        C        0.11111100000000002        0.796297        0.38149564864864866        0        
C_FG        C        0.22222200000000003        0.796297        0.38149564864864866        0.2        
C1        C        0.333333        0.796297        0.38149564864864866        0        
C1        C        0.44444400000000006        0.796297        0.38149564864864866        0        
C1        C        0.555556        0.796297        0.38149564864864866        0        
C1        C        0.666667        0.796297        0.38149564864864866        0        
C1        C        0.777778        0.796297        0.38149564864864866        0        
C1        C        0.888889        0.796297        0.38149564864864866        0        
C2        C        0.055556        0.851852        0.38149564864864866        0        
C2        C        0.166667        0.851852        0.38149564864864866        0        
C2        C        0.277778        0.851852        0.38149564864864866        0        
C2        C        0.388889        0.851852        0.38149564864864866        0        
C2        C        0.5        0.851852        0.38149564864864866        0        
C2        C        0.611111        0.851852        0.38149564864864866        0        
C2        C        0.722222        0.851852        0.38149564864864866        0        
C2        C        0.833333        0.851852        0.38149564864864866        0        
C2        C        0.944444        0.851852        0.38149564864864866        0        
C3        C        0.0        0.87037        0.38149564864864866        0        
C3        C        0.11111100000000002        0.87037        0.38149564864864866        0        
C3        C        0.22222200000000003        0.87037        0.38149564864864866        0        
C3        C        0.333333        0.87037        0.38149564864864866        0        
C3        C        0.44444400000000006        0.87037        0.38149564864864866        0        
C3        C        0.555556        0.87037        0.38149564864864866        0        
C3        C        0.666667        0.87037        0.38149564864864866        0        
C3        C        0.777778        0.87037        0.38149564864864866        0        
C3        C        0.888889        0.87037        0.38149564864864866        0        
C4        C        0.055556        0.814814        0.38149564864864866        0        
C4        C        0.166667        0.814814        0.38149564864864866        0        
C4        C        0.277778        0.814814        0.38149564864864866        0        
C4        C        0.388889        0.814814        0.38149564864864866        0        
C4        C        0.5        0.814814        0.38149564864864866        0        
C4        C        0.611111        0.814814        0.38149564864864866        0        
C4        C        0.722222        0.814814        0.38149564864864866        0        
C4        C        0.833333        0.814814        0.38149564864864866        0        
C4        C        0.944444        0.814814        0.38149564864864866        0        
C_FG        C        0.0        0.907408        0.38149564864864866        0.2        
C1        C        0.11111100000000002        0.907408        0.38149564864864866        0        
C_FG        C        0.22222200000000003        0.907408        0.38149564864864866        0.2        
C1        C        0.333333        0.907408        0.38149564864864866        0        
C1        C        0.44444400000000006        0.907408        0.38149564864864866        0        
C1        C        0.555556        0.907408        0.38149564864864866        0        
C1        C        0.666667        0.907408        0.38149564864864866        0        
C1        C        0.777778        0.907408        0.38149564864864866        0        
C1        C        0.888889        0.907408        0.38149564864864866        0        
C2        C        0.055556        0.962963        0.38149564864864866        0        
C2        C        0.166667        0.962963        0.38149564864864866        0        
C2        C        0.277778        0.962963        0.38149564864864866        0        
C2        C        0.388889        0.962963        0.38149564864864866        0        
C2        C        0.5        0.962963        0.38149564864864866        0        
C2        C        0.611111        0.962963        0.38149564864864866        0        
C2        C        0.722222        0.962963        0.38149564864864866        0        
C2        C        0.833333        0.962963        0.38149564864864866        0        
C2        C        0.944444        0.962963        0.38149564864864866        0        
C3        C        0.0        0.9814809999999999        0.38149564864864866        0        
C3        C        0.11111100000000002        0.9814809999999999        0.38149564864864866        0        
C3        C        0.22222200000000003        0.9814809999999999        0.38149564864864866        0        
C3        C        0.333333        0.9814809999999999        0.38149564864864866        0        
C3        C        0.44444400000000006        0.9814809999999999        0.38149564864864866        0        
C3        C        0.555556        0.9814809999999999        0.38149564864864866        0        
C3        C        0.666667        0.9814809999999999        0.38149564864864866        0        
C3        C        0.777778        0.9814809999999999        0.38149564864864866        0        
C3        C        0.888889        0.9814809999999999        0.38149564864864866        0        
C4        C        0.055556        0.925925        0.38149564864864866        0        
C4        C        0.166667        0.925925        0.38149564864864866        0        
C4        C        0.277778        0.925925        0.38149564864864866        0        
C4        C        0.388889        0.925925        0.38149564864864866        0        
C4        C        0.5        0.925925        0.38149564864864866        0        
C4        C        0.611111        0.925925        0.38149564864864866        0        
C4        C        0.722222        0.925925        0.38149564864864866        0        
C4        C        0.833333        0.925925        0.38149564864864866        0        
C4        C        0.944444        0.925925        0.38149564864864866        0        
O_OH        O        0.0        0.018519        0.015144099099099096        -0.64        
O_OH        O        0.0        0.12963        0.015144099099099096        -0.64        
O_OH        O        0.0        0.24074099999999998        0.015144099099099096        -0.64        
O_OH        O        0.0        0.351852        0.015144099099099096        -0.64        
O_OH        O        0.0        0.46296300000000007        0.015144099099099096        -0.64        
O_OH        O        0.0        0.574075        0.015144099099099096        -0.64        
O_OH        O        0.22222200000000003        0.018519        0.015144099099099096        -0.64        
O_OH        O        0.22222200000000003        0.12963        0.015144099099099096        -0.64        
O_OH        O        0.22222200000000003        0.24074099999999998        0.015144099099099096        -0.64        
O_OH        O        0.22222200000000003        0.351852        0.015144099099099096        -0.64        
O_OH        O        0.22222200000000003        0.46296300000000007        0.015144099099099096        -0.64        
O_OH        O        0.22222200000000003        0.574075        0.015144099099099096        -0.64        
O_OH        O        0.0        0.685186        0.015144099099099096        -0.64        
O_OH        O        0.22222200000000003        0.685186        0.015144099099099096        -0.64        
O_OH        O        0.0        0.796297        0.015144099099099096        -0.64        
O_OH        O        0.22222200000000003        0.796297        0.015144099099099096        -0.64        
O_OH        O        0.0        0.907408        0.015144099099099096        -0.64        
O_OH        O        0.22222200000000003        0.907408        0.015144099099099096        -0.64        
O_OH        O        0.0        0.018519        0.44604499999999997        -0.64        
O_OH        O        0.0        0.12963        0.44604499999999997        -0.64        
O_OH        O        0.0        0.24074099999999998        0.44604499999999997        -0.64        
O_OH        O        0.0        0.351852        0.44604499999999997        -0.64        
O_OH        O        0.0        0.46296300000000007        0.44604499999999997        -0.64        
O_OH        O        0.0        0.574075        0.44604499999999997        -0.64        
O_OH        O        0.22222200000000003        0.018519        0.44604499999999997        -0.64        
O_OH        O        0.22222200000000003        0.12963        0.44604499999999997        -0.64        
O_OH        O        0.22222200000000003        0.24074099999999998        0.44604499999999997        -0.64        
O_OH        O        0.22222200000000003        0.351852        0.44604499999999997        -0.64        
O_OH        O        0.22222200000000003        0.46296300000000007        0.44604499999999997        -0.64        
O_OH        O        0.22222200000000003        0.574075        0.44604499999999997        -0.64        
O_OH        O        0.0        0.685186        0.44604499999999997        -0.64        
O_OH        O        0.22222200000000003        0.685186        0.44604499999999997        -0.64        
O_OH        O        0.0        0.796297        0.44604499999999997        -0.64        
O_OH        O        0.22222200000000003        0.796297        0.44604499999999997        -0.64        
O_OH        O        0.0        0.907408        0.44604499999999997        -0.64        
O_OH        O        0.22222200000000003        0.907408        0.44604499999999997        -0.64        
H_OH        H        0.0013678393216943645        0.041959145969755134        0.0        0.44        
H_OH        H        0.005394285468383461        0.1528756676651272        0.0        0.44        
H_OH        H        0.022036019744336294        0.2604422202252921        0.0        0.44        
H_OH        H        0.029062852030241355        0.36823500517818347        0.0        0.44        
H_OH        H        0.0216566045329087        0.4828040219704903        0.0        0.44        
H_OH        H        -0.025073110771869266        0.5925256797803579        0.0        0.44        
H_OH        H        0.24034096579181644        0.03950920314249317        0.0        0.44        
H_OH        H        0.18302924895439476        0.13578120286577153        0.0        0.44        
H_OH        H        0.18282366038792644        0.24643743309494642        0.0        0.44        
H_OH        H        0.21559306179514576        0.37499094840649144        0.0        0.44        
H_OH        H        0.21089427540526795        0.48548576479470607        0.0        0.44        
H_OH        H        0.26274954914328763        0.5756089673002305        0.0        0.44        
H_OH        H        0.0011537422855986451        0.7086299857716756        0.0        0.44        
H_OH        H        0.26017316625877723        0.6935392549521956        0.0        0.44        
H_OH        H        0.01181119795203061        0.8187367958323974        0.0        0.44        
H_OH        H        0.2417041200651668        0.8168760303249128        0.0        0.44        
H_OH        H        0.008730582964353566        0.9303131648892877        0.0        0.44        
H_OH        H        0.18162346204139804        0.9080657328074988        0.0        0.44        
H_OH        H        -0.040610026099011556        0.018867583711999442        0.4611890990990991        0.44        
H_OH        H        -0.02976001881495952        0.14559018957642295        0.4611890990990991        0.44        
H_OH        H        0.02457907137217684        0.25941203478279523        0.4611890990990991        0.44        
H_OH        H        0.04058513435064873        0.35274389371107223        0.4611890990990991        0.44        
H_OH        H        -0.020596795396583344        0.4831768299547339        0.4611890990990991        0.44        
H_OH        H        -0.03787085197301965        0.582548932816845        0.4611890990990991        0.44        
H_OH        H        0.2334882704183561        0.04105204128184828        0.4611890990990991        0.44        
H_OH        H        0.1818996824411612        0.13243824360746298        0.4611890990990991        0.44        
H_OH        H        0.187137154954082        0.2525556565783923        0.4611890990990991        0.44        
H_OH        H        0.20206102323172384        0.37221181997369834        0.4611890990990991        0.44        
H_OH        H        0.23626469763814986        0.4849699493691915        0.4611890990990991        0.44        
H_OH        H        0.20224040097584928        0.594493703432727        0.4611890990990991        0.44        
H_OH        H        -0.00855054633396171        0.7081138012209142        0.4611890990990991        0.44        
H_OH        H        0.2567718633107681        0.6975151849882194        0.4611890990990991        0.44        
H_OH        H        0.019004766515143632        0.8170243459327746        0.4611890990990991        0.44        
H_OH        H        0.25344735049314854        0.8112945965363865        0.4611890990990991        0.44        
H_OH        H        0.03178551334971211        0.9220079241597591        0.4611890990990991        0.44        
H_OH        H        0.1857755405873994        0.917757261423315        0.4611890990990991        0.44        
