
#======================================================================
# CRYSTAL DATA
#----------------------------------------------------------------------
data_VESTA_phase_1

_chemical_name_common                  'graphite_ortho'
_cell_length_a                         39.360001
_cell_length_b                         38.340000
_cell_length_c                         13.700000
_cell_angle_alpha                      90.000000
_cell_angle_beta                       90.000000
_cell_angle_gamma                      90.000000
_cell_volume                           20674.154995
_space_group_name_H-M_alt              'P 1'
_space_group_IT_number                 1

loop_
_space_group_symop_operation_xyz
   'x, y, z'

loop_
   _atom_site_label
   _atom_site_occupancy
   _atom_site_fract_x
   _atom_site_fract_y
   _atom_site_fract_z
   _atom_site_adp_type
   _atom_site_U_iso_or_equiv
   _atom_site_type_symbol
   C1         1.0     0.000000     0.018519     0.000000    Uiso  ? C
   C2         1.0     0.031250     0.074075     0.000000    Uiso  ? C
   C3         1.0     0.000000     0.092592     0.000000    Uiso  ? C
   C4         1.0     0.031250     0.037037     0.000000    Uiso  ? C
   C1         1.0     0.000000     0.129630     0.000000    Uiso  ? C
   C2         1.0     0.031250     0.185185     0.000000    Uiso  ? C
   C3         1.0     0.000000     0.203703     0.000000    Uiso  ? C
   C4         1.0     0.031250     0.148148     0.000000    Uiso  ? C
   C1         1.0     0.000000     0.240741     0.000000    Uiso  ? C
   C2         1.0     0.031250     0.296297     0.000000    Uiso  ? C
   C3         1.0     0.000000     0.314815     0.000000    Uiso  ? C
   C4         1.0     0.031250     0.259259     0.000000    Uiso  ? C
   C1         1.0     0.000000     0.351852     0.000000    Uiso  ? C
   C2         1.0     0.031250     0.407408     0.000000    Uiso  ? C
   C3         1.0     0.000000     0.425925     0.000000    Uiso  ? C
   C4         1.0     0.031250     0.370370     0.000000    Uiso  ? C
   C1         1.0     0.000000     0.462963     0.000000    Uiso  ? C
   C2         1.0     0.031250     0.518519     0.000000    Uiso  ? C
   C3         1.0     0.000000     0.537037     0.000000    Uiso  ? C
   C4         1.0     0.031250     0.481481     0.000000    Uiso  ? C
   C1         1.0     0.000000     0.574075     0.000000    Uiso  ? C
   C2         1.0     0.031250     0.629630     0.000000    Uiso  ? C
   C3         1.0     0.000000     0.648148     0.000000    Uiso  ? C
   C4         1.0     0.031250     0.592592     0.000000    Uiso  ? C
   C1         1.0     0.062500     0.018519     0.000000    Uiso  ? C
   C2         1.0     0.093750     0.074075     0.000000    Uiso  ? C
   C3         1.0     0.062500     0.092592     0.000000    Uiso  ? C
   C4         1.0     0.093750     0.037037     0.000000    Uiso  ? C
   C1         1.0     0.062500     0.129630     0.000000    Uiso  ? C
   C2         1.0     0.093750     0.185185     0.000000    Uiso  ? C
   C3         1.0     0.062500     0.203703     0.000000    Uiso  ? C
   C4         1.0     0.093750     0.148148     0.000000    Uiso  ? C
   C1         1.0     0.062500     0.240741     0.000000    Uiso  ? C
   C2         1.0     0.093750     0.296297     0.000000    Uiso  ? C
   C3         1.0     0.062500     0.314815     0.000000    Uiso  ? C
   C4         1.0     0.093750     0.259259     0.000000    Uiso  ? C
   C1         1.0     0.062500     0.351852     0.000000    Uiso  ? C
   C2         1.0     0.093750     0.407408     0.000000    Uiso  ? C
   C3         1.0     0.062500     0.425925     0.000000    Uiso  ? C
   C4         1.0     0.093750     0.370370     0.000000    Uiso  ? C
   C1         1.0     0.062500     0.462963     0.000000    Uiso  ? C
   C2         1.0     0.093750     0.518519     0.000000    Uiso  ? C
   C3         1.0     0.062500     0.537037     0.000000    Uiso  ? C
   C4         1.0     0.093750     0.481481     0.000000    Uiso  ? C
   C1         1.0     0.062500     0.574075     0.000000    Uiso  ? C
   C2         1.0     0.093750     0.629630     0.000000    Uiso  ? C
   C3         1.0     0.062500     0.648148     0.000000    Uiso  ? C
   C4         1.0     0.093750     0.592592     0.000000    Uiso  ? C
   C1         1.0     0.125000     0.018519     0.000000    Uiso  ? C
   C2         1.0     0.156250     0.074075     0.000000    Uiso  ? C
   C3         1.0     0.125000     0.092592     0.000000    Uiso  ? C
   C4         1.0     0.156250     0.037037     0.000000    Uiso  ? C
   C1         1.0     0.125000     0.129630     0.000000    Uiso  ? C
   C2         1.0     0.156250     0.185185     0.000000    Uiso  ? C
   C3         1.0     0.125000     0.203703     0.000000    Uiso  ? C
   C4         1.0     0.156250     0.148148     0.000000    Uiso  ? C
   C1         1.0     0.125000     0.240741     0.000000    Uiso  ? C
   C2         1.0     0.156250     0.296297     0.000000    Uiso  ? C
   C3         1.0     0.125000     0.314815     0.000000    Uiso  ? C
   C4         1.0     0.156250     0.259259     0.000000    Uiso  ? C
   C1         1.0     0.125000     0.351852     0.000000    Uiso  ? C
   C2         1.0     0.156250     0.407408     0.000000    Uiso  ? C
   C3         1.0     0.125000     0.425925     0.000000    Uiso  ? C
   C4         1.0     0.156250     0.370370     0.000000    Uiso  ? C
   C1         1.0     0.125000     0.462963     0.000000    Uiso  ? C
   C2         1.0     0.156250     0.518519     0.000000    Uiso  ? C
   C3         1.0     0.125000     0.537037     0.000000    Uiso  ? C
   C4         1.0     0.156250     0.481481     0.000000    Uiso  ? C
   C1         1.0     0.125000     0.574075     0.000000    Uiso  ? C
   C2         1.0     0.156250     0.629630     0.000000    Uiso  ? C
   C3         1.0     0.125000     0.648148     0.000000    Uiso  ? C
   C4         1.0     0.156250     0.592592     0.000000    Uiso  ? C
   C1         1.0     0.187500     0.018519     0.000000    Uiso  ? C
   C2         1.0     0.218750     0.074075     0.000000    Uiso  ? C
   C3         1.0     0.187500     0.092592     0.000000    Uiso  ? C
   C4         1.0     0.218750     0.037037     0.000000    Uiso  ? C
   C1         1.0     0.187500     0.129630     0.000000    Uiso  ? C
   C2         1.0     0.218750     0.185185     0.000000    Uiso  ? C
   C3         1.0     0.187500     0.203703     0.000000    Uiso  ? C
   C4         1.0     0.218750     0.148148     0.000000    Uiso  ? C
   C1         1.0     0.187500     0.240741     0.000000    Uiso  ? C
   C2         1.0     0.218750     0.296297     0.000000    Uiso  ? C
   C3         1.0     0.187500     0.314815     0.000000    Uiso  ? C
   C4         1.0     0.218750     0.259259     0.000000    Uiso  ? C
   C1         1.0     0.187500     0.351852     0.000000    Uiso  ? C
   C2         1.0     0.218750     0.407408     0.000000    Uiso  ? C
   C3         1.0     0.187500     0.425925     0.000000    Uiso  ? C
   C4         1.0     0.218750     0.370370     0.000000    Uiso  ? C
   C1         1.0     0.187500     0.462963     0.000000    Uiso  ? C
   C2         1.0     0.218750     0.518519     0.000000    Uiso  ? C
   C3         1.0     0.187500     0.537037     0.000000    Uiso  ? C
   C4         1.0     0.218750     0.481481     0.000000    Uiso  ? C
   C1         1.0     0.187500     0.574075     0.000000    Uiso  ? C
   C2         1.0     0.218750     0.629630     0.000000    Uiso  ? C
   C3         1.0     0.187500     0.648148     0.000000    Uiso  ? C
   C4         1.0     0.218750     0.592592     0.000000    Uiso  ? C
   C1         1.0     0.250000     0.018519     0.000000    Uiso  ? C
   C2         1.0     0.281250     0.074075     0.000000    Uiso  ? C
   C3         1.0     0.250000     0.092592     0.000000    Uiso  ? C
   C4         1.0     0.281250     0.037037     0.000000    Uiso  ? C
   C1         1.0     0.250000     0.129630     0.000000    Uiso  ? C
   C2         1.0     0.281250     0.185185     0.000000    Uiso  ? C
   C3         1.0     0.250000     0.203703     0.000000    Uiso  ? C
   C4         1.0     0.281250     0.148148     0.000000    Uiso  ? C
   C1         1.0     0.250000     0.240741     0.000000    Uiso  ? C
   C2         1.0     0.281250     0.296297     0.000000    Uiso  ? C
   C3         1.0     0.250000     0.314815     0.000000    Uiso  ? C
   C4         1.0     0.281250     0.259259     0.000000    Uiso  ? C
   C1         1.0     0.250000     0.351852     0.000000    Uiso  ? C
   C2         1.0     0.281250     0.407408     0.000000    Uiso  ? C
   C3         1.0     0.250000     0.425925     0.000000    Uiso  ? C
   C4         1.0     0.281250     0.370370     0.000000    Uiso  ? C
   C1         1.0     0.250000     0.462963     0.000000    Uiso  ? C
   C2         1.0     0.281250     0.518519     0.000000    Uiso  ? C
   C3         1.0     0.250000     0.537037     0.000000    Uiso  ? C
   C4         1.0     0.281250     0.481481     0.000000    Uiso  ? C
   C1         1.0     0.250000     0.574075     0.000000    Uiso  ? C
   C2         1.0     0.281250     0.629630     0.000000    Uiso  ? C
   C3         1.0     0.250000     0.648148     0.000000    Uiso  ? C
   C4         1.0     0.281250     0.592592     0.000000    Uiso  ? C
   C1         1.0     0.312500     0.018519     0.000000    Uiso  ? C
   C2         1.0     0.343750     0.074075     0.000000    Uiso  ? C
   C3         1.0     0.312500     0.092592     0.000000    Uiso  ? C
   C4         1.0     0.343750     0.037037     0.000000    Uiso  ? C
   C1         1.0     0.312500     0.129630     0.000000    Uiso  ? C
   C2         1.0     0.343750     0.185185     0.000000    Uiso  ? C
   C3         1.0     0.312500     0.203703     0.000000    Uiso  ? C
   C4         1.0     0.343750     0.148148     0.000000    Uiso  ? C
   C1         1.0     0.312500     0.240741     0.000000    Uiso  ? C
   C2         1.0     0.343750     0.296297     0.000000    Uiso  ? C
   C3         1.0     0.312500     0.314815     0.000000    Uiso  ? C
   C4         1.0     0.343750     0.259259     0.000000    Uiso  ? C
   C1         1.0     0.312500     0.351852     0.000000    Uiso  ? C
   C2         1.0     0.343750     0.407408     0.000000    Uiso  ? C
   C3         1.0     0.312500     0.425925     0.000000    Uiso  ? C
   C4         1.0     0.343750     0.370370     0.000000    Uiso  ? C
   C1         1.0     0.312500     0.462963     0.000000    Uiso  ? C
   C2         1.0     0.343750     0.518519     0.000000    Uiso  ? C
   C3         1.0     0.312500     0.537037     0.000000    Uiso  ? C
   C4         1.0     0.343750     0.481481     0.000000    Uiso  ? C
   C1         1.0     0.312500     0.574075     0.000000    Uiso  ? C
   C2         1.0     0.343750     0.629630     0.000000    Uiso  ? C
   C3         1.0     0.312500     0.648148     0.000000    Uiso  ? C
   C4         1.0     0.343750     0.592592     0.000000    Uiso  ? C
   C1         1.0     0.375000     0.018519     0.000000    Uiso  ? C
   C2         1.0     0.406250     0.074075     0.000000    Uiso  ? C
   C3         1.0     0.375000     0.092592     0.000000    Uiso  ? C
   C4         1.0     0.406250     0.037037     0.000000    Uiso  ? C
   C1         1.0     0.375000     0.129630     0.000000    Uiso  ? C
   C2         1.0     0.406250     0.185185     0.000000    Uiso  ? C
   C3         1.0     0.375000     0.203703     0.000000    Uiso  ? C
   C4         1.0     0.406250     0.148148     0.000000    Uiso  ? C
   C1         1.0     0.375000     0.240741     0.000000    Uiso  ? C
   C2         1.0     0.406250     0.296297     0.000000    Uiso  ? C
   C3         1.0     0.375000     0.314815     0.000000    Uiso  ? C
   C4         1.0     0.406250     0.259259     0.000000    Uiso  ? C
   C1         1.0     0.375000     0.351852     0.000000    Uiso  ? C
   C2         1.0     0.406250     0.407408     0.000000    Uiso  ? C
   C3         1.0     0.375000     0.425925     0.000000    Uiso  ? C
   C4         1.0     0.406250     0.370370     0.000000    Uiso  ? C
   C1         1.0     0.375000     0.462963     0.000000    Uiso  ? C
   C2         1.0     0.406250     0.518519     0.000000    Uiso  ? C
   C3         1.0     0.375000     0.537037     0.000000    Uiso  ? C
   C4         1.0     0.406250     0.481481     0.000000    Uiso  ? C
   C1         1.0     0.375000     0.574075     0.000000    Uiso  ? C
   C2         1.0     0.406250     0.629630     0.000000    Uiso  ? C
   C3         1.0     0.375000     0.648148     0.000000    Uiso  ? C
   C4         1.0     0.406250     0.592592     0.000000    Uiso  ? C
   C1         1.0     0.437500     0.018519     0.000000    Uiso  ? C
   C2         1.0     0.468750     0.074075     0.000000    Uiso  ? C
   C3         1.0     0.437500     0.092592     0.000000    Uiso  ? C
   C4         1.0     0.468750     0.037037     0.000000    Uiso  ? C
   C1         1.0     0.437500     0.129630     0.000000    Uiso  ? C
   C2         1.0     0.468750     0.185185     0.000000    Uiso  ? C
   C3         1.0     0.437500     0.203703     0.000000    Uiso  ? C
   C4         1.0     0.468750     0.148148     0.000000    Uiso  ? C
   C1         1.0     0.437500     0.240741     0.000000    Uiso  ? C
   C2         1.0     0.468750     0.296297     0.000000    Uiso  ? C
   C3         1.0     0.437500     0.314815     0.000000    Uiso  ? C
   C4         1.0     0.468750     0.259259     0.000000    Uiso  ? C
   C1         1.0     0.437500     0.351852     0.000000    Uiso  ? C
   C2         1.0     0.468750     0.407408     0.000000    Uiso  ? C
   C3         1.0     0.437500     0.425925     0.000000    Uiso  ? C
   C4         1.0     0.468750     0.370370     0.000000    Uiso  ? C
   C1         1.0     0.437500     0.462963     0.000000    Uiso  ? C
   C2         1.0     0.468750     0.518519     0.000000    Uiso  ? C
   C3         1.0     0.437500     0.537037     0.000000    Uiso  ? C
   C4         1.0     0.468750     0.481481     0.000000    Uiso  ? C
   C1         1.0     0.437500     0.574075     0.000000    Uiso  ? C
   C2         1.0     0.468750     0.629630     0.000000    Uiso  ? C
   C3         1.0     0.437500     0.648148     0.000000    Uiso  ? C
   C4         1.0     0.468750     0.592592     0.000000    Uiso  ? C
   C1         1.0     0.500000     0.018519     0.000000    Uiso  ? C
   C2         1.0     0.531250     0.074075     0.000000    Uiso  ? C
   C3         1.0     0.500000     0.092592     0.000000    Uiso  ? C
   C4         1.0     0.531250     0.037037     0.000000    Uiso  ? C
   C1         1.0     0.500000     0.129630     0.000000    Uiso  ? C
   C2         1.0     0.531250     0.185185     0.000000    Uiso  ? C
   C3         1.0     0.500000     0.203703     0.000000    Uiso  ? C
   C4         1.0     0.531250     0.148148     0.000000    Uiso  ? C
   C1         1.0     0.500000     0.240741     0.000000    Uiso  ? C
   C2         1.0     0.531250     0.296297     0.000000    Uiso  ? C
   C3         1.0     0.500000     0.314815     0.000000    Uiso  ? C
   C4         1.0     0.531250     0.259259     0.000000    Uiso  ? C
   C1         1.0     0.500000     0.351852     0.000000    Uiso  ? C
   C2         1.0     0.531250     0.407408     0.000000    Uiso  ? C
   C3         1.0     0.500000     0.425925     0.000000    Uiso  ? C
   C4         1.0     0.531250     0.370370     0.000000    Uiso  ? C
   C1         1.0     0.500000     0.462963     0.000000    Uiso  ? C
   C2         1.0     0.531250     0.518519     0.000000    Uiso  ? C
   C3         1.0     0.500000     0.537037     0.000000    Uiso  ? C
   C4         1.0     0.531250     0.481481     0.000000    Uiso  ? C
   C1         1.0     0.500000     0.574075     0.000000    Uiso  ? C
   C2         1.0     0.531250     0.629630     0.000000    Uiso  ? C
   C3         1.0     0.500000     0.648148     0.000000    Uiso  ? C
   C4         1.0     0.531250     0.592592     0.000000    Uiso  ? C
   C1         1.0     0.562500     0.018519     0.000000    Uiso  ? C
   C2         1.0     0.593750     0.074075     0.000000    Uiso  ? C
   C3         1.0     0.562500     0.092592     0.000000    Uiso  ? C
   C4         1.0     0.593750     0.037037     0.000000    Uiso  ? C
   C1         1.0     0.562500     0.129630     0.000000    Uiso  ? C
   C2         1.0     0.593750     0.185185     0.000000    Uiso  ? C
   C3         1.0     0.562500     0.203703     0.000000    Uiso  ? C
   C4         1.0     0.593750     0.148148     0.000000    Uiso  ? C
   C1         1.0     0.562500     0.240741     0.000000    Uiso  ? C
   C2         1.0     0.593750     0.296297     0.000000    Uiso  ? C
   C3         1.0     0.562500     0.314815     0.000000    Uiso  ? C
   C4         1.0     0.593750     0.259259     0.000000    Uiso  ? C
   C1         1.0     0.562500     0.351852     0.000000    Uiso  ? C
   C2         1.0     0.593750     0.407408     0.000000    Uiso  ? C
   C3         1.0     0.562500     0.425925     0.000000    Uiso  ? C
   C4         1.0     0.593750     0.370370     0.000000    Uiso  ? C
   C1         1.0     0.562500     0.462963     0.000000    Uiso  ? C
   C2         1.0     0.593750     0.518519     0.000000    Uiso  ? C
   C3         1.0     0.562500     0.537037     0.000000    Uiso  ? C
   C4         1.0     0.593750     0.481481     0.000000    Uiso  ? C
   C1         1.0     0.562500     0.574075     0.000000    Uiso  ? C
   C2         1.0     0.593750     0.629630     0.000000    Uiso  ? C
   C3         1.0     0.562500     0.648148     0.000000    Uiso  ? C
   C4         1.0     0.593750     0.592592     0.000000    Uiso  ? C
   C1         1.0     0.625000     0.018519     0.000000    Uiso  ? C
   C2         1.0     0.656250     0.074075     0.000000    Uiso  ? C
   C3         1.0     0.625000     0.092592     0.000000    Uiso  ? C
   C4         1.0     0.656250     0.037037     0.000000    Uiso  ? C
   C1         1.0     0.625000     0.129630     0.000000    Uiso  ? C
   C2         1.0     0.656250     0.185185     0.000000    Uiso  ? C
   C3         1.0     0.625000     0.203703     0.000000    Uiso  ? C
   C4         1.0     0.656250     0.148148     0.000000    Uiso  ? C
   C1         1.0     0.625000     0.240741     0.000000    Uiso  ? C
   C2         1.0     0.656250     0.296297     0.000000    Uiso  ? C
   C3         1.0     0.625000     0.314815     0.000000    Uiso  ? C
   C4         1.0     0.656250     0.259259     0.000000    Uiso  ? C
   C1         1.0     0.625000     0.351852     0.000000    Uiso  ? C
   C2         1.0     0.656250     0.407408     0.000000    Uiso  ? C
   C3         1.0     0.625000     0.425925     0.000000    Uiso  ? C
   C4         1.0     0.656250     0.370370     0.000000    Uiso  ? C
   C1         1.0     0.625000     0.462963     0.000000    Uiso  ? C
   C2         1.0     0.656250     0.518519     0.000000    Uiso  ? C
   C3         1.0     0.625000     0.537037     0.000000    Uiso  ? C
   C4         1.0     0.656250     0.481481     0.000000    Uiso  ? C
   C1         1.0     0.625000     0.574075     0.000000    Uiso  ? C
   C2         1.0     0.656250     0.629630     0.000000    Uiso  ? C
   C3         1.0     0.625000     0.648148     0.000000    Uiso  ? C
   C4         1.0     0.656250     0.592592     0.000000    Uiso  ? C
   C1         1.0     0.687500     0.018519     0.000000    Uiso  ? C
   C2         1.0     0.718750     0.074075     0.000000    Uiso  ? C
   C3         1.0     0.687500     0.092592     0.000000    Uiso  ? C
   C4         1.0     0.718750     0.037037     0.000000    Uiso  ? C
   C1         1.0     0.687500     0.129630     0.000000    Uiso  ? C
   C2         1.0     0.718750     0.185185     0.000000    Uiso  ? C
   C3         1.0     0.687500     0.203703     0.000000    Uiso  ? C
   C4         1.0     0.718750     0.148148     0.000000    Uiso  ? C
   C1         1.0     0.687500     0.240741     0.000000    Uiso  ? C
   C2         1.0     0.718750     0.296297     0.000000    Uiso  ? C
   C3         1.0     0.687500     0.314815     0.000000    Uiso  ? C
   C4         1.0     0.718750     0.259259     0.000000    Uiso  ? C
   C1         1.0     0.687500     0.351852     0.000000    Uiso  ? C
   C2         1.0     0.718750     0.407408     0.000000    Uiso  ? C
   C3         1.0     0.687500     0.425925     0.000000    Uiso  ? C
   C4         1.0     0.718750     0.370370     0.000000    Uiso  ? C
   C1         1.0     0.687500     0.462963     0.000000    Uiso  ? C
   C2         1.0     0.718750     0.518519     0.000000    Uiso  ? C
   C3         1.0     0.687500     0.537037     0.000000    Uiso  ? C
   C4         1.0     0.718750     0.481481     0.000000    Uiso  ? C
   C1         1.0     0.687500     0.574075     0.000000    Uiso  ? C
   C2         1.0     0.718750     0.629630     0.000000    Uiso  ? C
   C3         1.0     0.687500     0.648148     0.000000    Uiso  ? C
   C4         1.0     0.718750     0.592592     0.000000    Uiso  ? C
   C1         1.0     0.750000     0.018519     0.000000    Uiso  ? C
   C2         1.0     0.781250     0.074075     0.000000    Uiso  ? C
   C3         1.0     0.750000     0.092592     0.000000    Uiso  ? C
   C4         1.0     0.781250     0.037037     0.000000    Uiso  ? C
   C1         1.0     0.750000     0.129630     0.000000    Uiso  ? C
   C2         1.0     0.781250     0.185185     0.000000    Uiso  ? C
   C3         1.0     0.750000     0.203703     0.000000    Uiso  ? C
   C4         1.0     0.781250     0.148148     0.000000    Uiso  ? C
   C1         1.0     0.750000     0.240741     0.000000    Uiso  ? C
   C2         1.0     0.781250     0.296297     0.000000    Uiso  ? C
   C3         1.0     0.750000     0.314815     0.000000    Uiso  ? C
   C4         1.0     0.781250     0.259259     0.000000    Uiso  ? C
   C1         1.0     0.750000     0.351852     0.000000    Uiso  ? C
   C2         1.0     0.781250     0.407408     0.000000    Uiso  ? C
   C3         1.0     0.750000     0.425925     0.000000    Uiso  ? C
   C4         1.0     0.781250     0.370370     0.000000    Uiso  ? C
   C1         1.0     0.750000     0.462963     0.000000    Uiso  ? C
   C2         1.0     0.781250     0.518519     0.000000    Uiso  ? C
   C3         1.0     0.750000     0.537037     0.000000    Uiso  ? C
   C4         1.0     0.781250     0.481481     0.000000    Uiso  ? C
   C1         1.0     0.750000     0.574075     0.000000    Uiso  ? C
   C2         1.0     0.781250     0.629630     0.000000    Uiso  ? C
   C3         1.0     0.750000     0.648148     0.000000    Uiso  ? C
   C4         1.0     0.781250     0.592592     0.000000    Uiso  ? C
   C1         1.0     0.812500     0.018519     0.000000    Uiso  ? C
   C2         1.0     0.843750     0.074075     0.000000    Uiso  ? C
   C3         1.0     0.812500     0.092592     0.000000    Uiso  ? C
   C4         1.0     0.843750     0.037037     0.000000    Uiso  ? C
   C1         1.0     0.812500     0.129630     0.000000    Uiso  ? C
   C2         1.0     0.843750     0.185185     0.000000    Uiso  ? C
   C3         1.0     0.812500     0.203703     0.000000    Uiso  ? C
   C4         1.0     0.843750     0.148148     0.000000    Uiso  ? C
   C1         1.0     0.812500     0.240741     0.000000    Uiso  ? C
   C2         1.0     0.843750     0.296297     0.000000    Uiso  ? C
   C3         1.0     0.812500     0.314815     0.000000    Uiso  ? C
   C4         1.0     0.843750     0.259259     0.000000    Uiso  ? C
   C1         1.0     0.812500     0.351852     0.000000    Uiso  ? C
   C2         1.0     0.843750     0.407408     0.000000    Uiso  ? C
   C3         1.0     0.812500     0.425925     0.000000    Uiso  ? C
   C4         1.0     0.843750     0.370370     0.000000    Uiso  ? C
   C1         1.0     0.812500     0.462963     0.000000    Uiso  ? C
   C2         1.0     0.843750     0.518519     0.000000    Uiso  ? C
   C3         1.0     0.812500     0.537037     0.000000    Uiso  ? C
   C4         1.0     0.843750     0.481481     0.000000    Uiso  ? C
   C1         1.0     0.812500     0.574075     0.000000    Uiso  ? C
   C2         1.0     0.843750     0.629630     0.000000    Uiso  ? C
   C3         1.0     0.812500     0.648148     0.000000    Uiso  ? C
   C4         1.0     0.843750     0.592592     0.000000    Uiso  ? C
   C1         1.0     0.875000     0.018519     0.000000    Uiso  ? C
   C2         1.0     0.906250     0.074075     0.000000    Uiso  ? C
   C3         1.0     0.875000     0.092592     0.000000    Uiso  ? C
   C4         1.0     0.906250     0.037037     0.000000    Uiso  ? C
   C1         1.0     0.875000     0.129630     0.000000    Uiso  ? C
   C2         1.0     0.906250     0.185185     0.000000    Uiso  ? C
   C3         1.0     0.875000     0.203703     0.000000    Uiso  ? C
   C4         1.0     0.906250     0.148148     0.000000    Uiso  ? C
   C1         1.0     0.875000     0.240741     0.000000    Uiso  ? C
   C2         1.0     0.906250     0.296297     0.000000    Uiso  ? C
   C3         1.0     0.875000     0.314815     0.000000    Uiso  ? C
   C4         1.0     0.906250     0.259259     0.000000    Uiso  ? C
   C1         1.0     0.875000     0.351852     0.000000    Uiso  ? C
   C2         1.0     0.906250     0.407408     0.000000    Uiso  ? C
   C3         1.0     0.875000     0.425925     0.000000    Uiso  ? C
   C4         1.0     0.906250     0.370370     0.000000    Uiso  ? C
   C1         1.0     0.875000     0.462963     0.000000    Uiso  ? C
   C2         1.0     0.906250     0.518519     0.000000    Uiso  ? C
   C3         1.0     0.875000     0.537037     0.000000    Uiso  ? C
   C4         1.0     0.906250     0.481481     0.000000    Uiso  ? C
   C1         1.0     0.875000     0.574075     0.000000    Uiso  ? C
   C2         1.0     0.906250     0.629630     0.000000    Uiso  ? C
   C3         1.0     0.875000     0.648148     0.000000    Uiso  ? C
   C4         1.0     0.906250     0.592592     0.000000    Uiso  ? C
   C1         1.0     0.937500     0.018519     0.000000    Uiso  ? C
   C2         1.0     0.968750     0.074075     0.000000    Uiso  ? C
   C3         1.0     0.937500     0.092592     0.000000    Uiso  ? C
   C4         1.0     0.968750     0.037037     0.000000    Uiso  ? C
   C1         1.0     0.937500     0.129630     0.000000    Uiso  ? C
   C2         1.0     0.968750     0.185185     0.000000    Uiso  ? C
   C3         1.0     0.937500     0.203703     0.000000    Uiso  ? C
   C4         1.0     0.968750     0.148148     0.000000    Uiso  ? C
   C1         1.0     0.937500     0.240741     0.000000    Uiso  ? C
   C2         1.0     0.968750     0.296297     0.000000    Uiso  ? C
   C3         1.0     0.937500     0.314815     0.000000    Uiso  ? C
   C4         1.0     0.968750     0.259259     0.000000    Uiso  ? C
   C1         1.0     0.937500     0.351852     0.000000    Uiso  ? C
   C2         1.0     0.968750     0.407408     0.000000    Uiso  ? C
   C3         1.0     0.937500     0.425925     0.000000    Uiso  ? C
   C4         1.0     0.968750     0.370370     0.000000    Uiso  ? C
   C1         1.0     0.937500     0.462963     0.000000    Uiso  ? C
   C2         1.0     0.968750     0.518519     0.000000    Uiso  ? C
   C3         1.0     0.937500     0.537037     0.000000    Uiso  ? C
   C4         1.0     0.968750     0.481481     0.000000    Uiso  ? C
   C1         1.0     0.937500     0.574075     0.000000    Uiso  ? C
   C2         1.0     0.968750     0.629630     0.000000    Uiso  ? C
   C3         1.0     0.937500     0.648148     0.000000    Uiso  ? C
   C4         1.0     0.968750     0.592592     0.000000    Uiso  ? C
   C1         1.0     0.000000     0.685186     0.000000    Uiso  ? C
   C1         1.0     0.062500     0.685186     0.000000    Uiso  ? C
   C1         1.0     0.125000     0.685186     0.000000    Uiso  ? C
   C1         1.0     0.187500     0.685186     0.000000    Uiso  ? C
   C1         1.0     0.250000     0.685186     0.000000    Uiso  ? C
   C1         1.0     0.312500     0.685186     0.000000    Uiso  ? C
   C1         1.0     0.375000     0.685186     0.000000    Uiso  ? C
   C1         1.0     0.437500     0.685186     0.000000    Uiso  ? C
   C1         1.0     0.500000     0.685186     0.000000    Uiso  ? C
   C1         1.0     0.562500     0.685186     0.000000    Uiso  ? C
   C1         1.0     0.625000     0.685186     0.000000    Uiso  ? C
   C1         1.0     0.687500     0.685186     0.000000    Uiso  ? C
   C1         1.0     0.750000     0.685186     0.000000    Uiso  ? C
   C1         1.0     0.812500     0.685186     0.000000    Uiso  ? C
   C1         1.0     0.875000     0.685186     0.000000    Uiso  ? C
   C1         1.0     0.937500     0.685186     0.000000    Uiso  ? C
   C2         1.0     0.031250     0.740741     0.000000    Uiso  ? C
   C2         1.0     0.093750     0.740741     0.000000    Uiso  ? C
   C2         1.0     0.156250     0.740741     0.000000    Uiso  ? C
   C2         1.0     0.218750     0.740741     0.000000    Uiso  ? C
   C2         1.0     0.281250     0.740741     0.000000    Uiso  ? C
   C2         1.0     0.343750     0.740741     0.000000    Uiso  ? C
   C2         1.0     0.406250     0.740741     0.000000    Uiso  ? C
   C2         1.0     0.468750     0.740741     0.000000    Uiso  ? C
   C2         1.0     0.531250     0.740741     0.000000    Uiso  ? C
   C2         1.0     0.593750     0.740741     0.000000    Uiso  ? C
   C2         1.0     0.656250     0.740741     0.000000    Uiso  ? C
   C2         1.0     0.718750     0.740741     0.000000    Uiso  ? C
   C2         1.0     0.781250     0.740741     0.000000    Uiso  ? C
   C2         1.0     0.843750     0.740741     0.000000    Uiso  ? C
   C2         1.0     0.906250     0.740741     0.000000    Uiso  ? C
   C2         1.0     0.968750     0.740741     0.000000    Uiso  ? C
   C3         1.0     0.000000     0.759259     0.000000    Uiso  ? C
   C3         1.0     0.062500     0.759259     0.000000    Uiso  ? C
   C3         1.0     0.125000     0.759259     0.000000    Uiso  ? C
   C3         1.0     0.187500     0.759259     0.000000    Uiso  ? C
   C3         1.0     0.250000     0.759259     0.000000    Uiso  ? C
   C3         1.0     0.312500     0.759259     0.000000    Uiso  ? C
   C3         1.0     0.375000     0.759259     0.000000    Uiso  ? C
   C3         1.0     0.437500     0.759259     0.000000    Uiso  ? C
   C3         1.0     0.500000     0.759259     0.000000    Uiso  ? C
   C3         1.0     0.562500     0.759259     0.000000    Uiso  ? C
   C3         1.0     0.625000     0.759259     0.000000    Uiso  ? C
   C3         1.0     0.687500     0.759259     0.000000    Uiso  ? C
   C3         1.0     0.750000     0.759259     0.000000    Uiso  ? C
   C3         1.0     0.812500     0.759259     0.000000    Uiso  ? C
   C3         1.0     0.875000     0.759259     0.000000    Uiso  ? C
   C3         1.0     0.937500     0.759259     0.000000    Uiso  ? C
   C4         1.0     0.031250     0.703703     0.000000    Uiso  ? C
   C4         1.0     0.093750     0.703703     0.000000    Uiso  ? C
   C4         1.0     0.156250     0.703703     0.000000    Uiso  ? C
   C4         1.0     0.218750     0.703703     0.000000    Uiso  ? C
   C4         1.0     0.281250     0.703703     0.000000    Uiso  ? C
   C4         1.0     0.343750     0.703703     0.000000    Uiso  ? C
   C4         1.0     0.406250     0.703703     0.000000    Uiso  ? C
   C4         1.0     0.468750     0.703703     0.000000    Uiso  ? C
   C4         1.0     0.531250     0.703703     0.000000    Uiso  ? C
   C4         1.0     0.593750     0.703703     0.000000    Uiso  ? C
   C4         1.0     0.656250     0.703703     0.000000    Uiso  ? C
   C4         1.0     0.718750     0.703703     0.000000    Uiso  ? C
   C4         1.0     0.781250     0.703703     0.000000    Uiso  ? C
   C4         1.0     0.843750     0.703703     0.000000    Uiso  ? C
   C4         1.0     0.906250     0.703703     0.000000    Uiso  ? C
   C4         1.0     0.968750     0.703703     0.000000    Uiso  ? C
   C1         1.0     0.000000     0.796297     0.000000    Uiso  ? C
   C1         1.0     0.062500     0.796297     0.000000    Uiso  ? C
   C1         1.0     0.125000     0.796297     0.000000    Uiso  ? C
   C1         1.0     0.187500     0.796297     0.000000    Uiso  ? C
   C1         1.0     0.250000     0.796297     0.000000    Uiso  ? C
   C1         1.0     0.312500     0.796297     0.000000    Uiso  ? C
   C1         1.0     0.375000     0.796297     0.000000    Uiso  ? C
   C1         1.0     0.437500     0.796297     0.000000    Uiso  ? C
   C1         1.0     0.500000     0.796297     0.000000    Uiso  ? C
   C1         1.0     0.562500     0.796297     0.000000    Uiso  ? C
   C1         1.0     0.625000     0.796297     0.000000    Uiso  ? C
   C1         1.0     0.687500     0.796297     0.000000    Uiso  ? C
   C1         1.0     0.750000     0.796297     0.000000    Uiso  ? C
   C1         1.0     0.812500     0.796297     0.000000    Uiso  ? C
   C1         1.0     0.875000     0.796297     0.000000    Uiso  ? C
   C1         1.0     0.937500     0.796297     0.000000    Uiso  ? C
   C2         1.0     0.031250     0.851852     0.000000    Uiso  ? C
   C2         1.0     0.093750     0.851852     0.000000    Uiso  ? C
   C2         1.0     0.156250     0.851852     0.000000    Uiso  ? C
   C2         1.0     0.218750     0.851852     0.000000    Uiso  ? C
   C2         1.0     0.281250     0.851852     0.000000    Uiso  ? C
   C2         1.0     0.343750     0.851852     0.000000    Uiso  ? C
   C2         1.0     0.406250     0.851852     0.000000    Uiso  ? C
   C2         1.0     0.468750     0.851852     0.000000    Uiso  ? C
   C2         1.0     0.531250     0.851852     0.000000    Uiso  ? C
   C2         1.0     0.593750     0.851852     0.000000    Uiso  ? C
   C2         1.0     0.656250     0.851852     0.000000    Uiso  ? C
   C2         1.0     0.718750     0.851852     0.000000    Uiso  ? C
   C2         1.0     0.781250     0.851852     0.000000    Uiso  ? C
   C2         1.0     0.843750     0.851852     0.000000    Uiso  ? C
   C2         1.0     0.906250     0.851852     0.000000    Uiso  ? C
   C2         1.0     0.968750     0.851852     0.000000    Uiso  ? C
   C3         1.0     0.000000     0.870370     0.000000    Uiso  ? C
   C3         1.0     0.062500     0.870370     0.000000    Uiso  ? C
   C3         1.0     0.125000     0.870370     0.000000    Uiso  ? C
   C3         1.0     0.187500     0.870370     0.000000    Uiso  ? C
   C3         1.0     0.250000     0.870370     0.000000    Uiso  ? C
   C3         1.0     0.312500     0.870370     0.000000    Uiso  ? C
   C3         1.0     0.375000     0.870370     0.000000    Uiso  ? C
   C3         1.0     0.437500     0.870370     0.000000    Uiso  ? C
   C3         1.0     0.500000     0.870370     0.000000    Uiso  ? C
   C3         1.0     0.562500     0.870370     0.000000    Uiso  ? C
   C3         1.0     0.625000     0.870370     0.000000    Uiso  ? C
   C3         1.0     0.687500     0.870370     0.000000    Uiso  ? C
   C3         1.0     0.750000     0.870370     0.000000    Uiso  ? C
   C3         1.0     0.812500     0.870370     0.000000    Uiso  ? C
   C3         1.0     0.875000     0.870370     0.000000    Uiso  ? C
   C3         1.0     0.937500     0.870370     0.000000    Uiso  ? C
   C4         1.0     0.031250     0.814814     0.000000    Uiso  ? C
   C4         1.0     0.093750     0.814814     0.000000    Uiso  ? C
   C4         1.0     0.156250     0.814814     0.000000    Uiso  ? C
   C4         1.0     0.218750     0.814814     0.000000    Uiso  ? C
   C4         1.0     0.281250     0.814814     0.000000    Uiso  ? C
   C4         1.0     0.343750     0.814814     0.000000    Uiso  ? C
   C4         1.0     0.406250     0.814814     0.000000    Uiso  ? C
   C4         1.0     0.468750     0.814814     0.000000    Uiso  ? C
   C4         1.0     0.531250     0.814814     0.000000    Uiso  ? C
   C4         1.0     0.593750     0.814814     0.000000    Uiso  ? C
   C4         1.0     0.656250     0.814814     0.000000    Uiso  ? C
   C4         1.0     0.718750     0.814814     0.000000    Uiso  ? C
   C4         1.0     0.781250     0.814814     0.000000    Uiso  ? C
   C4         1.0     0.843750     0.814814     0.000000    Uiso  ? C
   C4         1.0     0.906250     0.814814     0.000000    Uiso  ? C
   C4         1.0     0.968750     0.814814     0.000000    Uiso  ? C
   C1         1.0     0.000000     0.907408     0.000000    Uiso  ? C
   C1         1.0     0.062500     0.907408     0.000000    Uiso  ? C
   C1         1.0     0.125000     0.907408     0.000000    Uiso  ? C
   C1         1.0     0.187500     0.907408     0.000000    Uiso  ? C
   C1         1.0     0.250000     0.907408     0.000000    Uiso  ? C
   C1         1.0     0.312500     0.907408     0.000000    Uiso  ? C
   C1         1.0     0.375000     0.907408     0.000000    Uiso  ? C
   C1         1.0     0.437500     0.907408     0.000000    Uiso  ? C
   C1         1.0     0.500000     0.907408     0.000000    Uiso  ? C
   C1         1.0     0.562500     0.907408     0.000000    Uiso  ? C
   C1         1.0     0.625000     0.907408     0.000000    Uiso  ? C
   C1         1.0     0.687500     0.907408     0.000000    Uiso  ? C
   C1         1.0     0.750000     0.907408     0.000000    Uiso  ? C
   C1         1.0     0.812500     0.907408     0.000000    Uiso  ? C
   C1         1.0     0.875000     0.907408     0.000000    Uiso  ? C
   C1         1.0     0.937500     0.907408     0.000000    Uiso  ? C
   C2         1.0     0.031250     0.962963     0.000000    Uiso  ? C
   C2         1.0     0.093750     0.962963     0.000000    Uiso  ? C
   C2         1.0     0.156250     0.962963     0.000000    Uiso  ? C
   C2         1.0     0.218750     0.962963     0.000000    Uiso  ? C
   C2         1.0     0.281250     0.962963     0.000000    Uiso  ? C
   C2         1.0     0.343750     0.962963     0.000000    Uiso  ? C
   C2         1.0     0.406250     0.962963     0.000000    Uiso  ? C
   C2         1.0     0.468750     0.962963     0.000000    Uiso  ? C
   C2         1.0     0.531250     0.962963     0.000000    Uiso  ? C
   C2         1.0     0.593750     0.962963     0.000000    Uiso  ? C
   C2         1.0     0.656250     0.962963     0.000000    Uiso  ? C
   C2         1.0     0.718750     0.962963     0.000000    Uiso  ? C
   C2         1.0     0.781250     0.962963     0.000000    Uiso  ? C
   C2         1.0     0.843750     0.962963     0.000000    Uiso  ? C
   C2         1.0     0.906250     0.962963     0.000000    Uiso  ? C
   C2         1.0     0.968750     0.962963     0.000000    Uiso  ? C
   C3         1.0     0.000000     0.981481     0.000000    Uiso  ? C
   C3         1.0     0.062500     0.981481     0.000000    Uiso  ? C
   C3         1.0     0.125000     0.981481     0.000000    Uiso  ? C
   C3         1.0     0.187500     0.981481     0.000000    Uiso  ? C
   C3         1.0     0.250000     0.981481     0.000000    Uiso  ? C
   C3         1.0     0.312500     0.981481     0.000000    Uiso  ? C
   C3         1.0     0.375000     0.981481     0.000000    Uiso  ? C
   C3         1.0     0.437500     0.981481     0.000000    Uiso  ? C
   C3         1.0     0.500000     0.981481     0.000000    Uiso  ? C
   C3         1.0     0.562500     0.981481     0.000000    Uiso  ? C
   C3         1.0     0.625000     0.981481     0.000000    Uiso  ? C
   C3         1.0     0.687500     0.981481     0.000000    Uiso  ? C
   C3         1.0     0.750000     0.981481     0.000000    Uiso  ? C
   C3         1.0     0.812500     0.981481     0.000000    Uiso  ? C
   C3         1.0     0.875000     0.981481     0.000000    Uiso  ? C
   C3         1.0     0.937500     0.981481     0.000000    Uiso  ? C
   C4         1.0     0.031250     0.925925     0.000000    Uiso  ? C
   C4         1.0     0.093750     0.925925     0.000000    Uiso  ? C
   C4         1.0     0.156250     0.925925     0.000000    Uiso  ? C
   C4         1.0     0.218750     0.925925     0.000000    Uiso  ? C
   C4         1.0     0.281250     0.925925     0.000000    Uiso  ? C
   C4         1.0     0.343750     0.925925     0.000000    Uiso  ? C
   C4         1.0     0.406250     0.925925     0.000000    Uiso  ? C
   C4         1.0     0.468750     0.925925     0.000000    Uiso  ? C
   C4         1.0     0.531250     0.925925     0.000000    Uiso  ? C
   C4         1.0     0.593750     0.925925     0.000000    Uiso  ? C
   C4         1.0     0.656250     0.925925     0.000000    Uiso  ? C
   C4         1.0     0.718750     0.925925     0.000000    Uiso  ? C
   C4         1.0     0.781250     0.925925     0.000000    Uiso  ? C
   C4         1.0     0.843750     0.925925     0.000000    Uiso  ? C
   C4         1.0     0.906250     0.925925     0.000000    Uiso  ? C
   C4         1.0     0.968750     0.925925     0.000000    Uiso  ? C
   C1         1.0     0.000000     0.018519     0.244526    Uiso  ? C
   C2         1.0     0.031250     0.074075     0.244526    Uiso  ? C
   C3         1.0     0.000000     0.092592     0.244526    Uiso  ? C
   C4         1.0     0.031250     0.037037     0.244526    Uiso  ? C
   C1         1.0     0.000000     0.129630     0.244526    Uiso  ? C
   C2         1.0     0.031250     0.185185     0.244526    Uiso  ? C
   C3         1.0     0.000000     0.203703     0.244526    Uiso  ? C
   C4         1.0     0.031250     0.148148     0.244526    Uiso  ? C
   C1         1.0     0.000000     0.240741     0.244526    Uiso  ? C
   C2         1.0     0.031250     0.296297     0.244526    Uiso  ? C
   C3         1.0     0.000000     0.314815     0.244526    Uiso  ? C
   C4         1.0     0.031250     0.259259     0.244526    Uiso  ? C
   C1         1.0     0.000000     0.351852     0.244526    Uiso  ? C
   C2         1.0     0.031250     0.407408     0.244526    Uiso  ? C
   C3         1.0     0.000000     0.425925     0.244526    Uiso  ? C
   C4         1.0     0.031250     0.370370     0.244526    Uiso  ? C
   C1         1.0     0.000000     0.462963     0.244526    Uiso  ? C
   C2         1.0     0.031250     0.518519     0.244526    Uiso  ? C
   C3         1.0     0.000000     0.537037     0.244526    Uiso  ? C
   C4         1.0     0.031250     0.481481     0.244526    Uiso  ? C
   C1         1.0     0.000000     0.574075     0.244526    Uiso  ? C
   C2         1.0     0.031250     0.629630     0.244526    Uiso  ? C
   C3         1.0     0.000000     0.648148     0.244526    Uiso  ? C
   C4         1.0     0.031250     0.592592     0.244526    Uiso  ? C
   C1         1.0     0.062500     0.018519     0.244526    Uiso  ? C
   C2         1.0     0.093750     0.074075     0.244526    Uiso  ? C
   C3         1.0     0.062500     0.092592     0.244526    Uiso  ? C
   C4         1.0     0.093750     0.037037     0.244526    Uiso  ? C
   C1         1.0     0.062500     0.129630     0.244526    Uiso  ? C
   C2         1.0     0.093750     0.185185     0.244526    Uiso  ? C
   C3         1.0     0.062500     0.203703     0.244526    Uiso  ? C
   C4         1.0     0.093750     0.148148     0.244526    Uiso  ? C
   C1         1.0     0.062500     0.240741     0.244526    Uiso  ? C
   C2         1.0     0.093750     0.296297     0.244526    Uiso  ? C
   C3         1.0     0.062500     0.314815     0.244526    Uiso  ? C
   C4         1.0     0.093750     0.259259     0.244526    Uiso  ? C
   C1         1.0     0.062500     0.351852     0.244526    Uiso  ? C
   C2         1.0     0.093750     0.407408     0.244526    Uiso  ? C
   C3         1.0     0.062500     0.425925     0.244526    Uiso  ? C
   C4         1.0     0.093750     0.370370     0.244526    Uiso  ? C
   C1         1.0     0.062500     0.462963     0.244526    Uiso  ? C
   C2         1.0     0.093750     0.518519     0.244526    Uiso  ? C
   C3         1.0     0.062500     0.537037     0.244526    Uiso  ? C
   C4         1.0     0.093750     0.481481     0.244526    Uiso  ? C
   C1         1.0     0.062500     0.574075     0.244526    Uiso  ? C
   C2         1.0     0.093750     0.629630     0.244526    Uiso  ? C
   C3         1.0     0.062500     0.648148     0.244526    Uiso  ? C
   C4         1.0     0.093750     0.592592     0.244526    Uiso  ? C
   C1         1.0     0.125000     0.018519     0.244526    Uiso  ? C
   C2         1.0     0.156250     0.074075     0.244526    Uiso  ? C
   C3         1.0     0.125000     0.092592     0.244526    Uiso  ? C
   C4         1.0     0.156250     0.037037     0.244526    Uiso  ? C
   C1         1.0     0.125000     0.129630     0.244526    Uiso  ? C
   C2         1.0     0.156250     0.185185     0.244526    Uiso  ? C
   C3         1.0     0.125000     0.203703     0.244526    Uiso  ? C
   C4         1.0     0.156250     0.148148     0.244526    Uiso  ? C
   C1         1.0     0.125000     0.240741     0.244526    Uiso  ? C
   C2         1.0     0.156250     0.296297     0.244526    Uiso  ? C
   C3         1.0     0.125000     0.314815     0.244526    Uiso  ? C
   C4         1.0     0.156250     0.259259     0.244526    Uiso  ? C
   C1         1.0     0.125000     0.351852     0.244526    Uiso  ? C
   C2         1.0     0.156250     0.407408     0.244526    Uiso  ? C
   C3         1.0     0.125000     0.425925     0.244526    Uiso  ? C
   C4         1.0     0.156250     0.370370     0.244526    Uiso  ? C
   C1         1.0     0.125000     0.462963     0.244526    Uiso  ? C
   C2         1.0     0.156250     0.518519     0.244526    Uiso  ? C
   C3         1.0     0.125000     0.537037     0.244526    Uiso  ? C
   C4         1.0     0.156250     0.481481     0.244526    Uiso  ? C
   C1         1.0     0.125000     0.574075     0.244526    Uiso  ? C
   C2         1.0     0.156250     0.629630     0.244526    Uiso  ? C
   C3         1.0     0.125000     0.648148     0.244526    Uiso  ? C
   C4         1.0     0.156250     0.592592     0.244526    Uiso  ? C
   C1         1.0     0.187500     0.018519     0.244526    Uiso  ? C
   C2         1.0     0.218750     0.074075     0.244526    Uiso  ? C
   C3         1.0     0.187500     0.092592     0.244526    Uiso  ? C
   C4         1.0     0.218750     0.037037     0.244526    Uiso  ? C
   C1         1.0     0.187500     0.129630     0.244526    Uiso  ? C
   C2         1.0     0.218750     0.185185     0.244526    Uiso  ? C
   C3         1.0     0.187500     0.203703     0.244526    Uiso  ? C
   C4         1.0     0.218750     0.148148     0.244526    Uiso  ? C
   C1         1.0     0.187500     0.240741     0.244526    Uiso  ? C
   C2         1.0     0.218750     0.296297     0.244526    Uiso  ? C
   C3         1.0     0.187500     0.314815     0.244526    Uiso  ? C
   C4         1.0     0.218750     0.259259     0.244526    Uiso  ? C
   C1         1.0     0.187500     0.351852     0.244526    Uiso  ? C
   C2         1.0     0.218750     0.407408     0.244526    Uiso  ? C
   C3         1.0     0.187500     0.425925     0.244526    Uiso  ? C
   C4         1.0     0.218750     0.370370     0.244526    Uiso  ? C
   C1         1.0     0.187500     0.462963     0.244526    Uiso  ? C
   C2         1.0     0.218750     0.518519     0.244526    Uiso  ? C
   C3         1.0     0.187500     0.537037     0.244526    Uiso  ? C
   C4         1.0     0.218750     0.481481     0.244526    Uiso  ? C
   C1         1.0     0.187500     0.574075     0.244526    Uiso  ? C
   C2         1.0     0.218750     0.629630     0.244526    Uiso  ? C
   C3         1.0     0.187500     0.648148     0.244526    Uiso  ? C
   C4         1.0     0.218750     0.592592     0.244526    Uiso  ? C
   C1         1.0     0.250000     0.018519     0.244526    Uiso  ? C
   C2         1.0     0.281250     0.074075     0.244526    Uiso  ? C
   C3         1.0     0.250000     0.092592     0.244526    Uiso  ? C
   C4         1.0     0.281250     0.037037     0.244526    Uiso  ? C
   C1         1.0     0.250000     0.129630     0.244526    Uiso  ? C
   C2         1.0     0.281250     0.185185     0.244526    Uiso  ? C
   C3         1.0     0.250000     0.203703     0.244526    Uiso  ? C
   C4         1.0     0.281250     0.148148     0.244526    Uiso  ? C
   C1         1.0     0.250000     0.240741     0.244526    Uiso  ? C
   C2         1.0     0.281250     0.296297     0.244526    Uiso  ? C
   C3         1.0     0.250000     0.314815     0.244526    Uiso  ? C
   C4         1.0     0.281250     0.259259     0.244526    Uiso  ? C
   C1         1.0     0.250000     0.351852     0.244526    Uiso  ? C
   C2         1.0     0.281250     0.407408     0.244526    Uiso  ? C
   C3         1.0     0.250000     0.425925     0.244526    Uiso  ? C
   C4         1.0     0.281250     0.370370     0.244526    Uiso  ? C
   C1         1.0     0.250000     0.462963     0.244526    Uiso  ? C
   C2         1.0     0.281250     0.518519     0.244526    Uiso  ? C
   C3         1.0     0.250000     0.537037     0.244526    Uiso  ? C
   C4         1.0     0.281250     0.481481     0.244526    Uiso  ? C
   C1         1.0     0.250000     0.574075     0.244526    Uiso  ? C
   C2         1.0     0.281250     0.629630     0.244526    Uiso  ? C
   C3         1.0     0.250000     0.648148     0.244526    Uiso  ? C
   C4         1.0     0.281250     0.592592     0.244526    Uiso  ? C
   C1         1.0     0.312500     0.018519     0.244526    Uiso  ? C
   C2         1.0     0.343750     0.074075     0.244526    Uiso  ? C
   C3         1.0     0.312500     0.092592     0.244526    Uiso  ? C
   C4         1.0     0.343750     0.037037     0.244526    Uiso  ? C
   C1         1.0     0.312500     0.129630     0.244526    Uiso  ? C
   C2         1.0     0.343750     0.185185     0.244526    Uiso  ? C
   C3         1.0     0.312500     0.203703     0.244526    Uiso  ? C
   C4         1.0     0.343750     0.148148     0.244526    Uiso  ? C
   C1         1.0     0.312500     0.240741     0.244526    Uiso  ? C
   C2         1.0     0.343750     0.296297     0.244526    Uiso  ? C
   C3         1.0     0.312500     0.314815     0.244526    Uiso  ? C
   C4         1.0     0.343750     0.259259     0.244526    Uiso  ? C
   C1         1.0     0.312500     0.351852     0.244526    Uiso  ? C
   C2         1.0     0.343750     0.407408     0.244526    Uiso  ? C
   C3         1.0     0.312500     0.425925     0.244526    Uiso  ? C
   C4         1.0     0.343750     0.370370     0.244526    Uiso  ? C
   C1         1.0     0.312500     0.462963     0.244526    Uiso  ? C
   C2         1.0     0.343750     0.518519     0.244526    Uiso  ? C
   C3         1.0     0.312500     0.537037     0.244526    Uiso  ? C
   C4         1.0     0.343750     0.481481     0.244526    Uiso  ? C
   C1         1.0     0.312500     0.574075     0.244526    Uiso  ? C
   C2         1.0     0.343750     0.629630     0.244526    Uiso  ? C
   C3         1.0     0.312500     0.648148     0.244526    Uiso  ? C
   C4         1.0     0.343750     0.592592     0.244526    Uiso  ? C
   C1         1.0     0.375000     0.018519     0.244526    Uiso  ? C
   C2         1.0     0.406250     0.074075     0.244526    Uiso  ? C
   C3         1.0     0.375000     0.092592     0.244526    Uiso  ? C
   C4         1.0     0.406250     0.037037     0.244526    Uiso  ? C
   C1         1.0     0.375000     0.129630     0.244526    Uiso  ? C
   C2         1.0     0.406250     0.185185     0.244526    Uiso  ? C
   C3         1.0     0.375000     0.203703     0.244526    Uiso  ? C
   C4         1.0     0.406250     0.148148     0.244526    Uiso  ? C
   C1         1.0     0.375000     0.240741     0.244526    Uiso  ? C
   C2         1.0     0.406250     0.296297     0.244526    Uiso  ? C
   C3         1.0     0.375000     0.314815     0.244526    Uiso  ? C
   C4         1.0     0.406250     0.259259     0.244526    Uiso  ? C
   C1         1.0     0.375000     0.351852     0.244526    Uiso  ? C
   C2         1.0     0.406250     0.407408     0.244526    Uiso  ? C
   C3         1.0     0.375000     0.425925     0.244526    Uiso  ? C
   C4         1.0     0.406250     0.370370     0.244526    Uiso  ? C
   C1         1.0     0.375000     0.462963     0.244526    Uiso  ? C
   C2         1.0     0.406250     0.518519     0.244526    Uiso  ? C
   C3         1.0     0.375000     0.537037     0.244526    Uiso  ? C
   C4         1.0     0.406250     0.481481     0.244526    Uiso  ? C
   C1         1.0     0.375000     0.574075     0.244526    Uiso  ? C
   C2         1.0     0.406250     0.629630     0.244526    Uiso  ? C
   C3         1.0     0.375000     0.648148     0.244526    Uiso  ? C
   C4         1.0     0.406250     0.592592     0.244526    Uiso  ? C
   C1         1.0     0.437500     0.018519     0.244526    Uiso  ? C
   C2         1.0     0.468750     0.074075     0.244526    Uiso  ? C
   C3         1.0     0.437500     0.092592     0.244526    Uiso  ? C
   C4         1.0     0.468750     0.037037     0.244526    Uiso  ? C
   C1         1.0     0.437500     0.129630     0.244526    Uiso  ? C
   C2         1.0     0.468750     0.185185     0.244526    Uiso  ? C
   C3         1.0     0.437500     0.203703     0.244526    Uiso  ? C
   C4         1.0     0.468750     0.148148     0.244526    Uiso  ? C
   C1         1.0     0.437500     0.240741     0.244526    Uiso  ? C
   C2         1.0     0.468750     0.296297     0.244526    Uiso  ? C
   C3         1.0     0.437500     0.314815     0.244526    Uiso  ? C
   C4         1.0     0.468750     0.259259     0.244526    Uiso  ? C
   C1         1.0     0.437500     0.351852     0.244526    Uiso  ? C
   C2         1.0     0.468750     0.407408     0.244526    Uiso  ? C
   C3         1.0     0.437500     0.425925     0.244526    Uiso  ? C
   C4         1.0     0.468750     0.370370     0.244526    Uiso  ? C
   C1         1.0     0.437500     0.462963     0.244526    Uiso  ? C
   C2         1.0     0.468750     0.518519     0.244526    Uiso  ? C
   C3         1.0     0.437500     0.537037     0.244526    Uiso  ? C
   C4         1.0     0.468750     0.481481     0.244526    Uiso  ? C
   C1         1.0     0.437500     0.574075     0.244526    Uiso  ? C
   C2         1.0     0.468750     0.629630     0.244526    Uiso  ? C
   C3         1.0     0.437500     0.648148     0.244526    Uiso  ? C
   C4         1.0     0.468750     0.592592     0.244526    Uiso  ? C
   C1         1.0     0.500000     0.018519     0.244526    Uiso  ? C
   C2         1.0     0.531250     0.074075     0.244526    Uiso  ? C
   C3         1.0     0.500000     0.092592     0.244526    Uiso  ? C
   C4         1.0     0.531250     0.037037     0.244526    Uiso  ? C
   C1         1.0     0.500000     0.129630     0.244526    Uiso  ? C
   C2         1.0     0.531250     0.185185     0.244526    Uiso  ? C
   C3         1.0     0.500000     0.203703     0.244526    Uiso  ? C
   C4         1.0     0.531250     0.148148     0.244526    Uiso  ? C
   C1         1.0     0.500000     0.240741     0.244526    Uiso  ? C
   C2         1.0     0.531250     0.296297     0.244526    Uiso  ? C
   C3         1.0     0.500000     0.314815     0.244526    Uiso  ? C
   C4         1.0     0.531250     0.259259     0.244526    Uiso  ? C
   C1         1.0     0.500000     0.351852     0.244526    Uiso  ? C
   C2         1.0     0.531250     0.407408     0.244526    Uiso  ? C
   C3         1.0     0.500000     0.425925     0.244526    Uiso  ? C
   C4         1.0     0.531250     0.370370     0.244526    Uiso  ? C
   C1         1.0     0.500000     0.462963     0.244526    Uiso  ? C
   C2         1.0     0.531250     0.518519     0.244526    Uiso  ? C
   C3         1.0     0.500000     0.537037     0.244526    Uiso  ? C
   C4         1.0     0.531250     0.481481     0.244526    Uiso  ? C
   C1         1.0     0.500000     0.574075     0.244526    Uiso  ? C
   C2         1.0     0.531250     0.629630     0.244526    Uiso  ? C
   C3         1.0     0.500000     0.648148     0.244526    Uiso  ? C
   C4         1.0     0.531250     0.592592     0.244526    Uiso  ? C
   C1         1.0     0.562500     0.018519     0.244526    Uiso  ? C
   C2         1.0     0.593750     0.074075     0.244526    Uiso  ? C
   C3         1.0     0.562500     0.092592     0.244526    Uiso  ? C
   C4         1.0     0.593750     0.037037     0.244526    Uiso  ? C
   C1         1.0     0.562500     0.129630     0.244526    Uiso  ? C
   C2         1.0     0.593750     0.185185     0.244526    Uiso  ? C
   C3         1.0     0.562500     0.203703     0.244526    Uiso  ? C
   C4         1.0     0.593750     0.148148     0.244526    Uiso  ? C
   C1         1.0     0.562500     0.240741     0.244526    Uiso  ? C
   C2         1.0     0.593750     0.296297     0.244526    Uiso  ? C
   C3         1.0     0.562500     0.314815     0.244526    Uiso  ? C
   C4         1.0     0.593750     0.259259     0.244526    Uiso  ? C
   C1         1.0     0.562500     0.351852     0.244526    Uiso  ? C
   C2         1.0     0.593750     0.407408     0.244526    Uiso  ? C
   C3         1.0     0.562500     0.425925     0.244526    Uiso  ? C
   C4         1.0     0.593750     0.370370     0.244526    Uiso  ? C
   C1         1.0     0.562500     0.462963     0.244526    Uiso  ? C
   C2         1.0     0.593750     0.518519     0.244526    Uiso  ? C
   C3         1.0     0.562500     0.537037     0.244526    Uiso  ? C
   C4         1.0     0.593750     0.481481     0.244526    Uiso  ? C
   C1         1.0     0.562500     0.574075     0.244526    Uiso  ? C
   C2         1.0     0.593750     0.629630     0.244526    Uiso  ? C
   C3         1.0     0.562500     0.648148     0.244526    Uiso  ? C
   C4         1.0     0.593750     0.592592     0.244526    Uiso  ? C
   C1         1.0     0.625000     0.018519     0.244526    Uiso  ? C
   C2         1.0     0.656250     0.074075     0.244526    Uiso  ? C
   C3         1.0     0.625000     0.092592     0.244526    Uiso  ? C
   C4         1.0     0.656250     0.037037     0.244526    Uiso  ? C
   C1         1.0     0.625000     0.129630     0.244526    Uiso  ? C
   C2         1.0     0.656250     0.185185     0.244526    Uiso  ? C
   C3         1.0     0.625000     0.203703     0.244526    Uiso  ? C
   C4         1.0     0.656250     0.148148     0.244526    Uiso  ? C
   C1         1.0     0.625000     0.240741     0.244526    Uiso  ? C
   C2         1.0     0.656250     0.296297     0.244526    Uiso  ? C
   C3         1.0     0.625000     0.314815     0.244526    Uiso  ? C
   C4         1.0     0.656250     0.259259     0.244526    Uiso  ? C
   C1         1.0     0.625000     0.351852     0.244526    Uiso  ? C
   C2         1.0     0.656250     0.407408     0.244526    Uiso  ? C
   C3         1.0     0.625000     0.425925     0.244526    Uiso  ? C
   C4         1.0     0.656250     0.370370     0.244526    Uiso  ? C
   C1         1.0     0.625000     0.462963     0.244526    Uiso  ? C
   C2         1.0     0.656250     0.518519     0.244526    Uiso  ? C
   C3         1.0     0.625000     0.537037     0.244526    Uiso  ? C
   C4         1.0     0.656250     0.481481     0.244526    Uiso  ? C
   C1         1.0     0.625000     0.574075     0.244526    Uiso  ? C
   C2         1.0     0.656250     0.629630     0.244526    Uiso  ? C
   C3         1.0     0.625000     0.648148     0.244526    Uiso  ? C
   C4         1.0     0.656250     0.592592     0.244526    Uiso  ? C
   C1         1.0     0.687500     0.018519     0.244526    Uiso  ? C
   C2         1.0     0.718750     0.074075     0.244526    Uiso  ? C
   C3         1.0     0.687500     0.092592     0.244526    Uiso  ? C
   C4         1.0     0.718750     0.037037     0.244526    Uiso  ? C
   C1         1.0     0.687500     0.129630     0.244526    Uiso  ? C
   C2         1.0     0.718750     0.185185     0.244526    Uiso  ? C
   C3         1.0     0.687500     0.203703     0.244526    Uiso  ? C
   C4         1.0     0.718750     0.148148     0.244526    Uiso  ? C
   C1         1.0     0.687500     0.240741     0.244526    Uiso  ? C
   C2         1.0     0.718750     0.296297     0.244526    Uiso  ? C
   C3         1.0     0.687500     0.314815     0.244526    Uiso  ? C
   C4         1.0     0.718750     0.259259     0.244526    Uiso  ? C
   C1         1.0     0.687500     0.351852     0.244526    Uiso  ? C
   C2         1.0     0.718750     0.407408     0.244526    Uiso  ? C
   C3         1.0     0.687500     0.425925     0.244526    Uiso  ? C
   C4         1.0     0.718750     0.370370     0.244526    Uiso  ? C
   C1         1.0     0.687500     0.462963     0.244526    Uiso  ? C
   C2         1.0     0.718750     0.518519     0.244526    Uiso  ? C
   C3         1.0     0.687500     0.537037     0.244526    Uiso  ? C
   C4         1.0     0.718750     0.481481     0.244526    Uiso  ? C
   C1         1.0     0.687500     0.574075     0.244526    Uiso  ? C
   C2         1.0     0.718750     0.629630     0.244526    Uiso  ? C
   C3         1.0     0.687500     0.648148     0.244526    Uiso  ? C
   C4         1.0     0.718750     0.592592     0.244526    Uiso  ? C
   C1         1.0     0.750000     0.018519     0.244526    Uiso  ? C
   C2         1.0     0.781250     0.074075     0.244526    Uiso  ? C
   C3         1.0     0.750000     0.092592     0.244526    Uiso  ? C
   C4         1.0     0.781250     0.037037     0.244526    Uiso  ? C
   C1         1.0     0.750000     0.129630     0.244526    Uiso  ? C
   C2         1.0     0.781250     0.185185     0.244526    Uiso  ? C
   C3         1.0     0.750000     0.203703     0.244526    Uiso  ? C
   C4         1.0     0.781250     0.148148     0.244526    Uiso  ? C
   C1         1.0     0.750000     0.240741     0.244526    Uiso  ? C
   C2         1.0     0.781250     0.296297     0.244526    Uiso  ? C
   C3         1.0     0.750000     0.314815     0.244526    Uiso  ? C
   C4         1.0     0.781250     0.259259     0.244526    Uiso  ? C
   C1         1.0     0.750000     0.351852     0.244526    Uiso  ? C
   C2         1.0     0.781250     0.407408     0.244526    Uiso  ? C
   C3         1.0     0.750000     0.425925     0.244526    Uiso  ? C
   C4         1.0     0.781250     0.370370     0.244526    Uiso  ? C
   C1         1.0     0.750000     0.462963     0.244526    Uiso  ? C
   C2         1.0     0.781250     0.518519     0.244526    Uiso  ? C
   C3         1.0     0.750000     0.537037     0.244526    Uiso  ? C
   C4         1.0     0.781250     0.481481     0.244526    Uiso  ? C
   C1         1.0     0.750000     0.574075     0.244526    Uiso  ? C
   C2         1.0     0.781250     0.629630     0.244526    Uiso  ? C
   C3         1.0     0.750000     0.648148     0.244526    Uiso  ? C
   C4         1.0     0.781250     0.592592     0.244526    Uiso  ? C
   C1         1.0     0.812500     0.018519     0.244526    Uiso  ? C
   C2         1.0     0.843750     0.074075     0.244526    Uiso  ? C
   C3         1.0     0.812500     0.092592     0.244526    Uiso  ? C
   C4         1.0     0.843750     0.037037     0.244526    Uiso  ? C
   C1         1.0     0.812500     0.129630     0.244526    Uiso  ? C
   C2         1.0     0.843750     0.185185     0.244526    Uiso  ? C
   C3         1.0     0.812500     0.203703     0.244526    Uiso  ? C
   C4         1.0     0.843750     0.148148     0.244526    Uiso  ? C
   C1         1.0     0.812500     0.240741     0.244526    Uiso  ? C
   C2         1.0     0.843750     0.296297     0.244526    Uiso  ? C
   C3         1.0     0.812500     0.314815     0.244526    Uiso  ? C
   C4         1.0     0.843750     0.259259     0.244526    Uiso  ? C
   C1         1.0     0.812500     0.351852     0.244526    Uiso  ? C
   C2         1.0     0.843750     0.407408     0.244526    Uiso  ? C
   C3         1.0     0.812500     0.425925     0.244526    Uiso  ? C
   C4         1.0     0.843750     0.370370     0.244526    Uiso  ? C
   C1         1.0     0.812500     0.462963     0.244526    Uiso  ? C
   C2         1.0     0.843750     0.518519     0.244526    Uiso  ? C
   C3         1.0     0.812500     0.537037     0.244526    Uiso  ? C
   C4         1.0     0.843750     0.481481     0.244526    Uiso  ? C
   C1         1.0     0.812500     0.574075     0.244526    Uiso  ? C
   C2         1.0     0.843750     0.629630     0.244526    Uiso  ? C
   C3         1.0     0.812500     0.648148     0.244526    Uiso  ? C
   C4         1.0     0.843750     0.592592     0.244526    Uiso  ? C
   C1         1.0     0.875000     0.018519     0.244526    Uiso  ? C
   C2         1.0     0.906250     0.074075     0.244526    Uiso  ? C
   C3         1.0     0.875000     0.092592     0.244526    Uiso  ? C
   C4         1.0     0.906250     0.037037     0.244526    Uiso  ? C
   C1         1.0     0.875000     0.129630     0.244526    Uiso  ? C
   C2         1.0     0.906250     0.185185     0.244526    Uiso  ? C
   C3         1.0     0.875000     0.203703     0.244526    Uiso  ? C
   C4         1.0     0.906250     0.148148     0.244526    Uiso  ? C
   C1         1.0     0.875000     0.240741     0.244526    Uiso  ? C
   C2         1.0     0.906250     0.296297     0.244526    Uiso  ? C
   C3         1.0     0.875000     0.314815     0.244526    Uiso  ? C
   C4         1.0     0.906250     0.259259     0.244526    Uiso  ? C
   C1         1.0     0.875000     0.351852     0.244526    Uiso  ? C
   C2         1.0     0.906250     0.407408     0.244526    Uiso  ? C
   C3         1.0     0.875000     0.425925     0.244526    Uiso  ? C
   C4         1.0     0.906250     0.370370     0.244526    Uiso  ? C
   C1         1.0     0.875000     0.462963     0.244526    Uiso  ? C
   C2         1.0     0.906250     0.518519     0.244526    Uiso  ? C
   C3         1.0     0.875000     0.537037     0.244526    Uiso  ? C
   C4         1.0     0.906250     0.481481     0.244526    Uiso  ? C
   C1         1.0     0.875000     0.574075     0.244526    Uiso  ? C
   C2         1.0     0.906250     0.629630     0.244526    Uiso  ? C
   C3         1.0     0.875000     0.648148     0.244526    Uiso  ? C
   C4         1.0     0.906250     0.592592     0.244526    Uiso  ? C
   C1         1.0     0.937500     0.018519     0.244526    Uiso  ? C
   C2         1.0     0.968750     0.074075     0.244526    Uiso  ? C
   C3         1.0     0.937500     0.092592     0.244526    Uiso  ? C
   C4         1.0     0.968750     0.037037     0.244526    Uiso  ? C
   C1         1.0     0.937500     0.129630     0.244526    Uiso  ? C
   C2         1.0     0.968750     0.185185     0.244526    Uiso  ? C
   C3         1.0     0.937500     0.203703     0.244526    Uiso  ? C
   C4         1.0     0.968750     0.148148     0.244526    Uiso  ? C
   C1         1.0     0.937500     0.240741     0.244526    Uiso  ? C
   C2         1.0     0.968750     0.296297     0.244526    Uiso  ? C
   C3         1.0     0.937500     0.314815     0.244526    Uiso  ? C
   C4         1.0     0.968750     0.259259     0.244526    Uiso  ? C
   C1         1.0     0.937500     0.351852     0.244526    Uiso  ? C
   C2         1.0     0.968750     0.407408     0.244526    Uiso  ? C
   C3         1.0     0.937500     0.425925     0.244526    Uiso  ? C
   C4         1.0     0.968750     0.370370     0.244526    Uiso  ? C
   C1         1.0     0.937500     0.462963     0.244526    Uiso  ? C
   C2         1.0     0.968750     0.518519     0.244526    Uiso  ? C
   C3         1.0     0.937500     0.537037     0.244526    Uiso  ? C
   C4         1.0     0.968750     0.481481     0.244526    Uiso  ? C
   C1         1.0     0.937500     0.574075     0.244526    Uiso  ? C
   C2         1.0     0.968750     0.629630     0.244526    Uiso  ? C
   C3         1.0     0.937500     0.648148     0.244526    Uiso  ? C
   C4         1.0     0.968750     0.592592     0.244526    Uiso  ? C
   C1         1.0     0.000000     0.685186     0.244526    Uiso  ? C
   C1         1.0     0.062500     0.685186     0.244526    Uiso  ? C
   C1         1.0     0.125000     0.685186     0.244526    Uiso  ? C
   C1         1.0     0.187500     0.685186     0.244526    Uiso  ? C
   C1         1.0     0.250000     0.685186     0.244526    Uiso  ? C
   C1         1.0     0.312500     0.685186     0.244526    Uiso  ? C
   C1         1.0     0.375000     0.685186     0.244526    Uiso  ? C
   C1         1.0     0.437500     0.685186     0.244526    Uiso  ? C
   C1         1.0     0.500000     0.685186     0.244526    Uiso  ? C
   C1         1.0     0.562500     0.685186     0.244526    Uiso  ? C
   C1         1.0     0.625000     0.685186     0.244526    Uiso  ? C
   C1         1.0     0.687500     0.685186     0.244526    Uiso  ? C
   C1         1.0     0.750000     0.685186     0.244526    Uiso  ? C
   C1         1.0     0.812500     0.685186     0.244526    Uiso  ? C
   C1         1.0     0.875000     0.685186     0.244526    Uiso  ? C
   C1         1.0     0.937500     0.685186     0.244526    Uiso  ? C
   C2         1.0     0.031250     0.740741     0.244526    Uiso  ? C
   C2         1.0     0.093750     0.740741     0.244526    Uiso  ? C
   C2         1.0     0.156250     0.740741     0.244526    Uiso  ? C
   C2         1.0     0.218750     0.740741     0.244526    Uiso  ? C
   C2         1.0     0.281250     0.740741     0.244526    Uiso  ? C
   C2         1.0     0.343750     0.740741     0.244526    Uiso  ? C
   C2         1.0     0.406250     0.740741     0.244526    Uiso  ? C
   C2         1.0     0.468750     0.740741     0.244526    Uiso  ? C
   C2         1.0     0.531250     0.740741     0.244526    Uiso  ? C
   C2         1.0     0.593750     0.740741     0.244526    Uiso  ? C
   C2         1.0     0.656250     0.740741     0.244526    Uiso  ? C
   C2         1.0     0.718750     0.740741     0.244526    Uiso  ? C
   C2         1.0     0.781250     0.740741     0.244526    Uiso  ? C
   C2         1.0     0.843750     0.740741     0.244526    Uiso  ? C
   C2         1.0     0.906250     0.740741     0.244526    Uiso  ? C
   C2         1.0     0.968750     0.740741     0.244526    Uiso  ? C
   C3         1.0     0.000000     0.759259     0.244526    Uiso  ? C
   C3         1.0     0.062500     0.759259     0.244526    Uiso  ? C
   C3         1.0     0.125000     0.759259     0.244526    Uiso  ? C
   C3         1.0     0.187500     0.759259     0.244526    Uiso  ? C
   C3         1.0     0.250000     0.759259     0.244526    Uiso  ? C
   C3         1.0     0.312500     0.759259     0.244526    Uiso  ? C
   C3         1.0     0.375000     0.759259     0.244526    Uiso  ? C
   C3         1.0     0.437500     0.759259     0.244526    Uiso  ? C
   C3         1.0     0.500000     0.759259     0.244526    Uiso  ? C
   C3         1.0     0.562500     0.759259     0.244526    Uiso  ? C
   C3         1.0     0.625000     0.759259     0.244526    Uiso  ? C
   C3         1.0     0.687500     0.759259     0.244526    Uiso  ? C
   C3         1.0     0.750000     0.759259     0.244526    Uiso  ? C
   C3         1.0     0.812500     0.759259     0.244526    Uiso  ? C
   C3         1.0     0.875000     0.759259     0.244526    Uiso  ? C
   C3         1.0     0.937500     0.759259     0.244526    Uiso  ? C
   C4         1.0     0.031250     0.703703     0.244526    Uiso  ? C
   C4         1.0     0.093750     0.703703     0.244526    Uiso  ? C
   C4         1.0     0.156250     0.703703     0.244526    Uiso  ? C
   C4         1.0     0.218750     0.703703     0.244526    Uiso  ? C
   C4         1.0     0.281250     0.703703     0.244526    Uiso  ? C
   C4         1.0     0.343750     0.703703     0.244526    Uiso  ? C
   C4         1.0     0.406250     0.703703     0.244526    Uiso  ? C
   C4         1.0     0.468750     0.703703     0.244526    Uiso  ? C
   C4         1.0     0.531250     0.703703     0.244526    Uiso  ? C
   C4         1.0     0.593750     0.703703     0.244526    Uiso  ? C
   C4         1.0     0.656250     0.703703     0.244526    Uiso  ? C
   C4         1.0     0.718750     0.703703     0.244526    Uiso  ? C
   C4         1.0     0.781250     0.703703     0.244526    Uiso  ? C
   C4         1.0     0.843750     0.703703     0.244526    Uiso  ? C
   C4         1.0     0.906250     0.703703     0.244526    Uiso  ? C
   C4         1.0     0.968750     0.703703     0.244526    Uiso  ? C
   C1         1.0     0.000000     0.796297     0.244526    Uiso  ? C
   C1         1.0     0.062500     0.796297     0.244526    Uiso  ? C
   C1         1.0     0.125000     0.796297     0.244526    Uiso  ? C
   C1         1.0     0.187500     0.796297     0.244526    Uiso  ? C
   C1         1.0     0.250000     0.796297     0.244526    Uiso  ? C
   C1         1.0     0.312500     0.796297     0.244526    Uiso  ? C
   C1         1.0     0.375000     0.796297     0.244526    Uiso  ? C
   C1         1.0     0.437500     0.796297     0.244526    Uiso  ? C
   C1         1.0     0.500000     0.796297     0.244526    Uiso  ? C
   C1         1.0     0.562500     0.796297     0.244526    Uiso  ? C
   C1         1.0     0.625000     0.796297     0.244526    Uiso  ? C
   C1         1.0     0.687500     0.796297     0.244526    Uiso  ? C
   C1         1.0     0.750000     0.796297     0.244526    Uiso  ? C
   C1         1.0     0.812500     0.796297     0.244526    Uiso  ? C
   C1         1.0     0.875000     0.796297     0.244526    Uiso  ? C
   C1         1.0     0.937500     0.796297     0.244526    Uiso  ? C
   C2         1.0     0.031250     0.851852     0.244526    Uiso  ? C
   C2         1.0     0.093750     0.851852     0.244526    Uiso  ? C
   C2         1.0     0.156250     0.851852     0.244526    Uiso  ? C
   C2         1.0     0.218750     0.851852     0.244526    Uiso  ? C
   C2         1.0     0.281250     0.851852     0.244526    Uiso  ? C
   C2         1.0     0.343750     0.851852     0.244526    Uiso  ? C
   C2         1.0     0.406250     0.851852     0.244526    Uiso  ? C
   C2         1.0     0.468750     0.851852     0.244526    Uiso  ? C
   C2         1.0     0.531250     0.851852     0.244526    Uiso  ? C
   C2         1.0     0.593750     0.851852     0.244526    Uiso  ? C
   C2         1.0     0.656250     0.851852     0.244526    Uiso  ? C
   C2         1.0     0.718750     0.851852     0.244526    Uiso  ? C
   C2         1.0     0.781250     0.851852     0.244526    Uiso  ? C
   C2         1.0     0.843750     0.851852     0.244526    Uiso  ? C
   C2         1.0     0.906250     0.851852     0.244526    Uiso  ? C
   C2         1.0     0.968750     0.851852     0.244526    Uiso  ? C
   C3         1.0     0.000000     0.870370     0.244526    Uiso  ? C
   C3         1.0     0.062500     0.870370     0.244526    Uiso  ? C
   C3         1.0     0.125000     0.870370     0.244526    Uiso  ? C
   C3         1.0     0.187500     0.870370     0.244526    Uiso  ? C
   C3         1.0     0.250000     0.870370     0.244526    Uiso  ? C
   C3         1.0     0.312500     0.870370     0.244526    Uiso  ? C
   C3         1.0     0.375000     0.870370     0.244526    Uiso  ? C
   C3         1.0     0.437500     0.870370     0.244526    Uiso  ? C
   C3         1.0     0.500000     0.870370     0.244526    Uiso  ? C
   C3         1.0     0.562500     0.870370     0.244526    Uiso  ? C
   C3         1.0     0.625000     0.870370     0.244526    Uiso  ? C
   C3         1.0     0.687500     0.870370     0.244526    Uiso  ? C
   C3         1.0     0.750000     0.870370     0.244526    Uiso  ? C
   C3         1.0     0.812500     0.870370     0.244526    Uiso  ? C
   C3         1.0     0.875000     0.870370     0.244526    Uiso  ? C
   C3         1.0     0.937500     0.870370     0.244526    Uiso  ? C
   C4         1.0     0.031250     0.814814     0.244526    Uiso  ? C
   C4         1.0     0.093750     0.814814     0.244526    Uiso  ? C
   C4         1.0     0.156250     0.814814     0.244526    Uiso  ? C
   C4         1.0     0.218750     0.814814     0.244526    Uiso  ? C
   C4         1.0     0.281250     0.814814     0.244526    Uiso  ? C
   C4         1.0     0.343750     0.814814     0.244526    Uiso  ? C
   C4         1.0     0.406250     0.814814     0.244526    Uiso  ? C
   C4         1.0     0.468750     0.814814     0.244526    Uiso  ? C
   C4         1.0     0.531250     0.814814     0.244526    Uiso  ? C
   C4         1.0     0.593750     0.814814     0.244526    Uiso  ? C
   C4         1.0     0.656250     0.814814     0.244526    Uiso  ? C
   C4         1.0     0.718750     0.814814     0.244526    Uiso  ? C
   C4         1.0     0.781250     0.814814     0.244526    Uiso  ? C
   C4         1.0     0.843750     0.814814     0.244526    Uiso  ? C
   C4         1.0     0.906250     0.814814     0.244526    Uiso  ? C
   C4         1.0     0.968750     0.814814     0.244526    Uiso  ? C
   C1         1.0     0.000000     0.907408     0.244526    Uiso  ? C
   C1         1.0     0.062500     0.907408     0.244526    Uiso  ? C
   C1         1.0     0.125000     0.907408     0.244526    Uiso  ? C
   C1         1.0     0.187500     0.907408     0.244526    Uiso  ? C
   C1         1.0     0.250000     0.907408     0.244526    Uiso  ? C
   C1         1.0     0.312500     0.907408     0.244526    Uiso  ? C
   C1         1.0     0.375000     0.907408     0.244526    Uiso  ? C
   C1         1.0     0.437500     0.907408     0.244526    Uiso  ? C
   C1         1.0     0.500000     0.907408     0.244526    Uiso  ? C
   C1         1.0     0.562500     0.907408     0.244526    Uiso  ? C
   C1         1.0     0.625000     0.907408     0.244526    Uiso  ? C
   C1         1.0     0.687500     0.907408     0.244526    Uiso  ? C
   C1         1.0     0.750000     0.907408     0.244526    Uiso  ? C
   C1         1.0     0.812500     0.907408     0.244526    Uiso  ? C
   C1         1.0     0.875000     0.907408     0.244526    Uiso  ? C
   C1         1.0     0.937500     0.907408     0.244526    Uiso  ? C
   C2         1.0     0.031250     0.962963     0.244526    Uiso  ? C
   C2         1.0     0.093750     0.962963     0.244526    Uiso  ? C
   C2         1.0     0.156250     0.962963     0.244526    Uiso  ? C
   C2         1.0     0.218750     0.962963     0.244526    Uiso  ? C
   C2         1.0     0.281250     0.962963     0.244526    Uiso  ? C
   C2         1.0     0.343750     0.962963     0.244526    Uiso  ? C
   C2         1.0     0.406250     0.962963     0.244526    Uiso  ? C
   C2         1.0     0.468750     0.962963     0.244526    Uiso  ? C
   C2         1.0     0.531250     0.962963     0.244526    Uiso  ? C
   C2         1.0     0.593750     0.962963     0.244526    Uiso  ? C
   C2         1.0     0.656250     0.962963     0.244526    Uiso  ? C
   C2         1.0     0.718750     0.962963     0.244526    Uiso  ? C
   C2         1.0     0.781250     0.962963     0.244526    Uiso  ? C
   C2         1.0     0.843750     0.962963     0.244526    Uiso  ? C
   C2         1.0     0.906250     0.962963     0.244526    Uiso  ? C
   C2         1.0     0.968750     0.962963     0.244526    Uiso  ? C
   C3         1.0     0.000000     0.981481     0.244526    Uiso  ? C
   C3         1.0     0.062500     0.981481     0.244526    Uiso  ? C
   C3         1.0     0.125000     0.981481     0.244526    Uiso  ? C
   C3         1.0     0.187500     0.981481     0.244526    Uiso  ? C
   C3         1.0     0.250000     0.981481     0.244526    Uiso  ? C
   C3         1.0     0.312500     0.981481     0.244526    Uiso  ? C
   C3         1.0     0.375000     0.981481     0.244526    Uiso  ? C
   C3         1.0     0.437500     0.981481     0.244526    Uiso  ? C
   C3         1.0     0.500000     0.981481     0.244526    Uiso  ? C
   C3         1.0     0.562500     0.981481     0.244526    Uiso  ? C
   C3         1.0     0.625000     0.981481     0.244526    Uiso  ? C
   C3         1.0     0.687500     0.981481     0.244526    Uiso  ? C
   C3         1.0     0.750000     0.981481     0.244526    Uiso  ? C
   C3         1.0     0.812500     0.981481     0.244526    Uiso  ? C
   C3         1.0     0.875000     0.981481     0.244526    Uiso  ? C
   C3         1.0     0.937500     0.981481     0.244526    Uiso  ? C
   C4         1.0     0.031250     0.925925     0.244526    Uiso  ? C
   C4         1.0     0.093750     0.925925     0.244526    Uiso  ? C
   C4         1.0     0.156250     0.925925     0.244526    Uiso  ? C
   C4         1.0     0.218750     0.925925     0.244526    Uiso  ? C
   C4         1.0     0.281250     0.925925     0.244526    Uiso  ? C
   C4         1.0     0.343750     0.925925     0.244526    Uiso  ? C
   C4         1.0     0.406250     0.925925     0.244526    Uiso  ? C
   C4         1.0     0.468750     0.925925     0.244526    Uiso  ? C
   C4         1.0     0.531250     0.925925     0.244526    Uiso  ? C
   C4         1.0     0.593750     0.925925     0.244526    Uiso  ? C
   C4         1.0     0.656250     0.925925     0.244526    Uiso  ? C
   C4         1.0     0.718750     0.925925     0.244526    Uiso  ? C
   C4         1.0     0.781250     0.925925     0.244526    Uiso  ? C
   C4         1.0     0.843750     0.925925     0.244526    Uiso  ? C
   C4         1.0     0.906250     0.925925     0.244526    Uiso  ? C
   C4         1.0     0.968750     0.925925     0.244526    Uiso  ? C
   C1         1.0     0.000000     0.018519     0.489051    Uiso  ? C
   C2         1.0     0.031250     0.074075     0.489051    Uiso  ? C
   C3         1.0     0.000000     0.092592     0.489051    Uiso  ? C
   C4         1.0     0.031250     0.037037     0.489051    Uiso  ? C
   C1         1.0     0.000000     0.129630     0.489051    Uiso  ? C
   C2         1.0     0.031250     0.185185     0.489051    Uiso  ? C
   C3         1.0     0.000000     0.203703     0.489051    Uiso  ? C
   C4         1.0     0.031250     0.148148     0.489051    Uiso  ? C
   C1         1.0     0.000000     0.240741     0.489051    Uiso  ? C
   C2         1.0     0.031250     0.296297     0.489051    Uiso  ? C
   C3         1.0     0.000000     0.314815     0.489051    Uiso  ? C
   C4         1.0     0.031250     0.259259     0.489051    Uiso  ? C
   C1         1.0     0.000000     0.351852     0.489051    Uiso  ? C
   C2         1.0     0.031250     0.407408     0.489051    Uiso  ? C
   C3         1.0     0.000000     0.425925     0.489051    Uiso  ? C
   C4         1.0     0.031250     0.370370     0.489051    Uiso  ? C
   C1         1.0     0.000000     0.462963     0.489051    Uiso  ? C
   C2         1.0     0.031250     0.518519     0.489051    Uiso  ? C
   C3         1.0     0.000000     0.537037     0.489051    Uiso  ? C
   C4         1.0     0.031250     0.481481     0.489051    Uiso  ? C
   C1         1.0     0.000000     0.574075     0.489051    Uiso  ? C
   C2         1.0     0.031250     0.629630     0.489051    Uiso  ? C
   C3         1.0     0.000000     0.648148     0.489051    Uiso  ? C
   C4         1.0     0.031250     0.592592     0.489051    Uiso  ? C
   C1         1.0     0.062500     0.018519     0.489051    Uiso  ? C
   C2         1.0     0.093750     0.074075     0.489051    Uiso  ? C
   C3         1.0     0.062500     0.092592     0.489051    Uiso  ? C
   C4         1.0     0.093750     0.037037     0.489051    Uiso  ? C
   C1         1.0     0.062500     0.129630     0.489051    Uiso  ? C
   C2         1.0     0.093750     0.185185     0.489051    Uiso  ? C
   C3         1.0     0.062500     0.203703     0.489051    Uiso  ? C
   C4         1.0     0.093750     0.148148     0.489051    Uiso  ? C
   C1         1.0     0.062500     0.240741     0.489051    Uiso  ? C
   C2         1.0     0.093750     0.296297     0.489051    Uiso  ? C
   C3         1.0     0.062500     0.314815     0.489051    Uiso  ? C
   C4         1.0     0.093750     0.259259     0.489051    Uiso  ? C
   C1         1.0     0.062500     0.351852     0.489051    Uiso  ? C
   C2         1.0     0.093750     0.407408     0.489051    Uiso  ? C
   C3         1.0     0.062500     0.425925     0.489051    Uiso  ? C
   C4         1.0     0.093750     0.370370     0.489051    Uiso  ? C
   C1         1.0     0.062500     0.462963     0.489051    Uiso  ? C
   C2         1.0     0.093750     0.518519     0.489051    Uiso  ? C
   C3         1.0     0.062500     0.537037     0.489051    Uiso  ? C
   C4         1.0     0.093750     0.481481     0.489051    Uiso  ? C
   C1         1.0     0.062500     0.574075     0.489051    Uiso  ? C
   C2         1.0     0.093750     0.629630     0.489051    Uiso  ? C
   C3         1.0     0.062500     0.648148     0.489051    Uiso  ? C
   C4         1.0     0.093750     0.592592     0.489051    Uiso  ? C
   C1         1.0     0.125000     0.018519     0.489051    Uiso  ? C
   C2         1.0     0.156250     0.074075     0.489051    Uiso  ? C
   C3         1.0     0.125000     0.092592     0.489051    Uiso  ? C
   C4         1.0     0.156250     0.037037     0.489051    Uiso  ? C
   C1         1.0     0.125000     0.129630     0.489051    Uiso  ? C
   C2         1.0     0.156250     0.185185     0.489051    Uiso  ? C
   C3         1.0     0.125000     0.203703     0.489051    Uiso  ? C
   C4         1.0     0.156250     0.148148     0.489051    Uiso  ? C
   C1         1.0     0.125000     0.240741     0.489051    Uiso  ? C
   C2         1.0     0.156250     0.296297     0.489051    Uiso  ? C
   C3         1.0     0.125000     0.314815     0.489051    Uiso  ? C
   C4         1.0     0.156250     0.259259     0.489051    Uiso  ? C
   C1         1.0     0.125000     0.351852     0.489051    Uiso  ? C
   C2         1.0     0.156250     0.407408     0.489051    Uiso  ? C
   C3         1.0     0.125000     0.425925     0.489051    Uiso  ? C
   C4         1.0     0.156250     0.370370     0.489051    Uiso  ? C
   C1         1.0     0.125000     0.462963     0.489051    Uiso  ? C
   C2         1.0     0.156250     0.518519     0.489051    Uiso  ? C
   C3         1.0     0.125000     0.537037     0.489051    Uiso  ? C
   C4         1.0     0.156250     0.481481     0.489051    Uiso  ? C
   C1         1.0     0.125000     0.574075     0.489051    Uiso  ? C
   C2         1.0     0.156250     0.629630     0.489051    Uiso  ? C
   C3         1.0     0.125000     0.648148     0.489051    Uiso  ? C
   C4         1.0     0.156250     0.592592     0.489051    Uiso  ? C
   C1         1.0     0.187500     0.018519     0.489051    Uiso  ? C
   C2         1.0     0.218750     0.074075     0.489051    Uiso  ? C
   C3         1.0     0.187500     0.092592     0.489051    Uiso  ? C
   C4         1.0     0.218750     0.037037     0.489051    Uiso  ? C
   C1         1.0     0.187500     0.129630     0.489051    Uiso  ? C
   C2         1.0     0.218750     0.185185     0.489051    Uiso  ? C
   C3         1.0     0.187500     0.203703     0.489051    Uiso  ? C
   C4         1.0     0.218750     0.148148     0.489051    Uiso  ? C
   C1         1.0     0.187500     0.240741     0.489051    Uiso  ? C
   C2         1.0     0.218750     0.296297     0.489051    Uiso  ? C
   C3         1.0     0.187500     0.314815     0.489051    Uiso  ? C
   C4         1.0     0.218750     0.259259     0.489051    Uiso  ? C
   C1         1.0     0.187500     0.351852     0.489051    Uiso  ? C
   C2         1.0     0.218750     0.407408     0.489051    Uiso  ? C
   C3         1.0     0.187500     0.425925     0.489051    Uiso  ? C
   C4         1.0     0.218750     0.370370     0.489051    Uiso  ? C
   C1         1.0     0.187500     0.462963     0.489051    Uiso  ? C
   C2         1.0     0.218750     0.518519     0.489051    Uiso  ? C
   C3         1.0     0.187500     0.537037     0.489051    Uiso  ? C
   C4         1.0     0.218750     0.481481     0.489051    Uiso  ? C
   C1         1.0     0.187500     0.574075     0.489051    Uiso  ? C
   C2         1.0     0.218750     0.629630     0.489051    Uiso  ? C
   C3         1.0     0.187500     0.648148     0.489051    Uiso  ? C
   C4         1.0     0.218750     0.592592     0.489051    Uiso  ? C
   C1         1.0     0.250000     0.018519     0.489051    Uiso  ? C
   C2         1.0     0.281250     0.074075     0.489051    Uiso  ? C
   C3         1.0     0.250000     0.092592     0.489051    Uiso  ? C
   C4         1.0     0.281250     0.037037     0.489051    Uiso  ? C
   C1         1.0     0.250000     0.129630     0.489051    Uiso  ? C
   C2         1.0     0.281250     0.185185     0.489051    Uiso  ? C
   C3         1.0     0.250000     0.203703     0.489051    Uiso  ? C
   C4         1.0     0.281250     0.148148     0.489051    Uiso  ? C
   C1         1.0     0.250000     0.240741     0.489051    Uiso  ? C
   C2         1.0     0.281250     0.296297     0.489051    Uiso  ? C
   C3         1.0     0.250000     0.314815     0.489051    Uiso  ? C
   C4         1.0     0.281250     0.259259     0.489051    Uiso  ? C
   C1         1.0     0.250000     0.351852     0.489051    Uiso  ? C
   C2         1.0     0.281250     0.407408     0.489051    Uiso  ? C
   C3         1.0     0.250000     0.425925     0.489051    Uiso  ? C
   C4         1.0     0.281250     0.370370     0.489051    Uiso  ? C
   C1         1.0     0.250000     0.462963     0.489051    Uiso  ? C
   C2         1.0     0.281250     0.518519     0.489051    Uiso  ? C
   C3         1.0     0.250000     0.537037     0.489051    Uiso  ? C
   C4         1.0     0.281250     0.481481     0.489051    Uiso  ? C
   C1         1.0     0.250000     0.574075     0.489051    Uiso  ? C
   C2         1.0     0.281250     0.629630     0.489051    Uiso  ? C
   C3         1.0     0.250000     0.648148     0.489051    Uiso  ? C
   C4         1.0     0.281250     0.592592     0.489051    Uiso  ? C
   C1         1.0     0.312500     0.018519     0.489051    Uiso  ? C
   C2         1.0     0.343750     0.074075     0.489051    Uiso  ? C
   C3         1.0     0.312500     0.092592     0.489051    Uiso  ? C
   C4         1.0     0.343750     0.037037     0.489051    Uiso  ? C
   C1         1.0     0.312500     0.129630     0.489051    Uiso  ? C
   C2         1.0     0.343750     0.185185     0.489051    Uiso  ? C
   C3         1.0     0.312500     0.203703     0.489051    Uiso  ? C
   C4         1.0     0.343750     0.148148     0.489051    Uiso  ? C
   C1         1.0     0.312500     0.240741     0.489051    Uiso  ? C
   C2         1.0     0.343750     0.296297     0.489051    Uiso  ? C
   C3         1.0     0.312500     0.314815     0.489051    Uiso  ? C
   C4         1.0     0.343750     0.259259     0.489051    Uiso  ? C
   C1         1.0     0.312500     0.351852     0.489051    Uiso  ? C
   C2         1.0     0.343750     0.407408     0.489051    Uiso  ? C
   C3         1.0     0.312500     0.425925     0.489051    Uiso  ? C
   C4         1.0     0.343750     0.370370     0.489051    Uiso  ? C
   C1         1.0     0.312500     0.462963     0.489051    Uiso  ? C
   C2         1.0     0.343750     0.518519     0.489051    Uiso  ? C
   C3         1.0     0.312500     0.537037     0.489051    Uiso  ? C
   C4         1.0     0.343750     0.481481     0.489051    Uiso  ? C
   C1         1.0     0.312500     0.574075     0.489051    Uiso  ? C
   C2         1.0     0.343750     0.629630     0.489051    Uiso  ? C
   C3         1.0     0.312500     0.648148     0.489051    Uiso  ? C
   C4         1.0     0.343750     0.592592     0.489051    Uiso  ? C
   C1         1.0     0.375000     0.018519     0.489051    Uiso  ? C
   C2         1.0     0.406250     0.074075     0.489051    Uiso  ? C
   C3         1.0     0.375000     0.092592     0.489051    Uiso  ? C
   C4         1.0     0.406250     0.037037     0.489051    Uiso  ? C
   C1         1.0     0.375000     0.129630     0.489051    Uiso  ? C
   C2         1.0     0.406250     0.185185     0.489051    Uiso  ? C
   C3         1.0     0.375000     0.203703     0.489051    Uiso  ? C
   C4         1.0     0.406250     0.148148     0.489051    Uiso  ? C
   C1         1.0     0.375000     0.240741     0.489051    Uiso  ? C
   C2         1.0     0.406250     0.296297     0.489051    Uiso  ? C
   C3         1.0     0.375000     0.314815     0.489051    Uiso  ? C
   C4         1.0     0.406250     0.259259     0.489051    Uiso  ? C
   C1         1.0     0.375000     0.351852     0.489051    Uiso  ? C
   C2         1.0     0.406250     0.407408     0.489051    Uiso  ? C
   C3         1.0     0.375000     0.425925     0.489051    Uiso  ? C
   C4         1.0     0.406250     0.370370     0.489051    Uiso  ? C
   C1         1.0     0.375000     0.462963     0.489051    Uiso  ? C
   C2         1.0     0.406250     0.518519     0.489051    Uiso  ? C
   C3         1.0     0.375000     0.537037     0.489051    Uiso  ? C
   C4         1.0     0.406250     0.481481     0.489051    Uiso  ? C
   C1         1.0     0.375000     0.574075     0.489051    Uiso  ? C
   C2         1.0     0.406250     0.629630     0.489051    Uiso  ? C
   C3         1.0     0.375000     0.648148     0.489051    Uiso  ? C
   C4         1.0     0.406250     0.592592     0.489051    Uiso  ? C
   C1         1.0     0.437500     0.018519     0.489051    Uiso  ? C
   C2         1.0     0.468750     0.074075     0.489051    Uiso  ? C
   C3         1.0     0.437500     0.092592     0.489051    Uiso  ? C
   C4         1.0     0.468750     0.037037     0.489051    Uiso  ? C
   C1         1.0     0.437500     0.129630     0.489051    Uiso  ? C
   C2         1.0     0.468750     0.185185     0.489051    Uiso  ? C
   C3         1.0     0.437500     0.203703     0.489051    Uiso  ? C
   C4         1.0     0.468750     0.148148     0.489051    Uiso  ? C
   C1         1.0     0.437500     0.240741     0.489051    Uiso  ? C
   C2         1.0     0.468750     0.296297     0.489051    Uiso  ? C
   C3         1.0     0.437500     0.314815     0.489051    Uiso  ? C
   C4         1.0     0.468750     0.259259     0.489051    Uiso  ? C
   C1         1.0     0.437500     0.351852     0.489051    Uiso  ? C
   C2         1.0     0.468750     0.407408     0.489051    Uiso  ? C
   C3         1.0     0.437500     0.425925     0.489051    Uiso  ? C
   C4         1.0     0.468750     0.370370     0.489051    Uiso  ? C
   C1         1.0     0.437500     0.462963     0.489051    Uiso  ? C
   C2         1.0     0.468750     0.518519     0.489051    Uiso  ? C
   C3         1.0     0.437500     0.537037     0.489051    Uiso  ? C
   C4         1.0     0.468750     0.481481     0.489051    Uiso  ? C
   C1         1.0     0.437500     0.574075     0.489051    Uiso  ? C
   C2         1.0     0.468750     0.629630     0.489051    Uiso  ? C
   C3         1.0     0.437500     0.648148     0.489051    Uiso  ? C
   C4         1.0     0.468750     0.592592     0.489051    Uiso  ? C
   C1         1.0     0.500000     0.018519     0.489051    Uiso  ? C
   C2         1.0     0.531250     0.074075     0.489051    Uiso  ? C
   C3         1.0     0.500000     0.092592     0.489051    Uiso  ? C
   C4         1.0     0.531250     0.037037     0.489051    Uiso  ? C
   C1         1.0     0.500000     0.129630     0.489051    Uiso  ? C
   C2         1.0     0.531250     0.185185     0.489051    Uiso  ? C
   C3         1.0     0.500000     0.203703     0.489051    Uiso  ? C
   C4         1.0     0.531250     0.148148     0.489051    Uiso  ? C
   C1         1.0     0.500000     0.240741     0.489051    Uiso  ? C
   C2         1.0     0.531250     0.296297     0.489051    Uiso  ? C
   C3         1.0     0.500000     0.314815     0.489051    Uiso  ? C
   C4         1.0     0.531250     0.259259     0.489051    Uiso  ? C
   C1         1.0     0.500000     0.351852     0.489051    Uiso  ? C
   C2         1.0     0.531250     0.407408     0.489051    Uiso  ? C
   C3         1.0     0.500000     0.425925     0.489051    Uiso  ? C
   C4         1.0     0.531250     0.370370     0.489051    Uiso  ? C
   C1         1.0     0.500000     0.462963     0.489051    Uiso  ? C
   C2         1.0     0.531250     0.518519     0.489051    Uiso  ? C
   C3         1.0     0.500000     0.537037     0.489051    Uiso  ? C
   C4         1.0     0.531250     0.481481     0.489051    Uiso  ? C
   C1         1.0     0.500000     0.574075     0.489051    Uiso  ? C
   C2         1.0     0.531250     0.629630     0.489051    Uiso  ? C
   C3         1.0     0.500000     0.648148     0.489051    Uiso  ? C
   C4         1.0     0.531250     0.592592     0.489051    Uiso  ? C
   C1         1.0     0.562500     0.018519     0.489051    Uiso  ? C
   C2         1.0     0.593750     0.074075     0.489051    Uiso  ? C
   C3         1.0     0.562500     0.092592     0.489051    Uiso  ? C
   C4         1.0     0.593750     0.037037     0.489051    Uiso  ? C
   C1         1.0     0.562500     0.129630     0.489051    Uiso  ? C
   C2         1.0     0.593750     0.185185     0.489051    Uiso  ? C
   C3         1.0     0.562500     0.203703     0.489051    Uiso  ? C
   C4         1.0     0.593750     0.148148     0.489051    Uiso  ? C
   C1         1.0     0.562500     0.240741     0.489051    Uiso  ? C
   C2         1.0     0.593750     0.296297     0.489051    Uiso  ? C
   C3         1.0     0.562500     0.314815     0.489051    Uiso  ? C
   C4         1.0     0.593750     0.259259     0.489051    Uiso  ? C
   C1         1.0     0.562500     0.351852     0.489051    Uiso  ? C
   C2         1.0     0.593750     0.407408     0.489051    Uiso  ? C
   C3         1.0     0.562500     0.425925     0.489051    Uiso  ? C
   C4         1.0     0.593750     0.370370     0.489051    Uiso  ? C
   C1         1.0     0.562500     0.462963     0.489051    Uiso  ? C
   C2         1.0     0.593750     0.518519     0.489051    Uiso  ? C
   C3         1.0     0.562500     0.537037     0.489051    Uiso  ? C
   C4         1.0     0.593750     0.481481     0.489051    Uiso  ? C
   C1         1.0     0.562500     0.574075     0.489051    Uiso  ? C
   C2         1.0     0.593750     0.629630     0.489051    Uiso  ? C
   C3         1.0     0.562500     0.648148     0.489051    Uiso  ? C
   C4         1.0     0.593750     0.592592     0.489051    Uiso  ? C
   C1         1.0     0.625000     0.018519     0.489051    Uiso  ? C
   C2         1.0     0.656250     0.074075     0.489051    Uiso  ? C
   C3         1.0     0.625000     0.092592     0.489051    Uiso  ? C
   C4         1.0     0.656250     0.037037     0.489051    Uiso  ? C
   C1         1.0     0.625000     0.129630     0.489051    Uiso  ? C
   C2         1.0     0.656250     0.185185     0.489051    Uiso  ? C
   C3         1.0     0.625000     0.203703     0.489051    Uiso  ? C
   C4         1.0     0.656250     0.148148     0.489051    Uiso  ? C
   C1         1.0     0.625000     0.240741     0.489051    Uiso  ? C
   C2         1.0     0.656250     0.296297     0.489051    Uiso  ? C
   C3         1.0     0.625000     0.314815     0.489051    Uiso  ? C
   C4         1.0     0.656250     0.259259     0.489051    Uiso  ? C
   C1         1.0     0.625000     0.351852     0.489051    Uiso  ? C
   C2         1.0     0.656250     0.407408     0.489051    Uiso  ? C
   C3         1.0     0.625000     0.425925     0.489051    Uiso  ? C
   C4         1.0     0.656250     0.370370     0.489051    Uiso  ? C
   C1         1.0     0.625000     0.462963     0.489051    Uiso  ? C
   C2         1.0     0.656250     0.518519     0.489051    Uiso  ? C
   C3         1.0     0.625000     0.537037     0.489051    Uiso  ? C
   C4         1.0     0.656250     0.481481     0.489051    Uiso  ? C
   C1         1.0     0.625000     0.574075     0.489051    Uiso  ? C
   C2         1.0     0.656250     0.629630     0.489051    Uiso  ? C
   C3         1.0     0.625000     0.648148     0.489051    Uiso  ? C
   C4         1.0     0.656250     0.592592     0.489051    Uiso  ? C
   C1         1.0     0.687500     0.018519     0.489051    Uiso  ? C
   C2         1.0     0.718750     0.074075     0.489051    Uiso  ? C
   C3         1.0     0.687500     0.092592     0.489051    Uiso  ? C
   C4         1.0     0.718750     0.037037     0.489051    Uiso  ? C
   C1         1.0     0.687500     0.129630     0.489051    Uiso  ? C
   C2         1.0     0.718750     0.185185     0.489051    Uiso  ? C
   C3         1.0     0.687500     0.203703     0.489051    Uiso  ? C
   C4         1.0     0.718750     0.148148     0.489051    Uiso  ? C
   C1         1.0     0.687500     0.240741     0.489051    Uiso  ? C
   C2         1.0     0.718750     0.296297     0.489051    Uiso  ? C
   C3         1.0     0.687500     0.314815     0.489051    Uiso  ? C
   C4         1.0     0.718750     0.259259     0.489051    Uiso  ? C
   C1         1.0     0.687500     0.351852     0.489051    Uiso  ? C
   C2         1.0     0.718750     0.407408     0.489051    Uiso  ? C
   C3         1.0     0.687500     0.425925     0.489051    Uiso  ? C
   C4         1.0     0.718750     0.370370     0.489051    Uiso  ? C
   C1         1.0     0.687500     0.462963     0.489051    Uiso  ? C
   C2         1.0     0.718750     0.518519     0.489051    Uiso  ? C
   C3         1.0     0.687500     0.537037     0.489051    Uiso  ? C
   C4         1.0     0.718750     0.481481     0.489051    Uiso  ? C
   C1         1.0     0.687500     0.574075     0.489051    Uiso  ? C
   C2         1.0     0.718750     0.629630     0.489051    Uiso  ? C
   C3         1.0     0.687500     0.648148     0.489051    Uiso  ? C
   C4         1.0     0.718750     0.592592     0.489051    Uiso  ? C
   C1         1.0     0.750000     0.018519     0.489051    Uiso  ? C
   C2         1.0     0.781250     0.074075     0.489051    Uiso  ? C
   C3         1.0     0.750000     0.092592     0.489051    Uiso  ? C
   C4         1.0     0.781250     0.037037     0.489051    Uiso  ? C
   C1         1.0     0.750000     0.129630     0.489051    Uiso  ? C
   C2         1.0     0.781250     0.185185     0.489051    Uiso  ? C
   C3         1.0     0.750000     0.203703     0.489051    Uiso  ? C
   C4         1.0     0.781250     0.148148     0.489051    Uiso  ? C
   C1         1.0     0.750000     0.240741     0.489051    Uiso  ? C
   C2         1.0     0.781250     0.296297     0.489051    Uiso  ? C
   C3         1.0     0.750000     0.314815     0.489051    Uiso  ? C
   C4         1.0     0.781250     0.259259     0.489051    Uiso  ? C
   C1         1.0     0.750000     0.351852     0.489051    Uiso  ? C
   C2         1.0     0.781250     0.407408     0.489051    Uiso  ? C
   C3         1.0     0.750000     0.425925     0.489051    Uiso  ? C
   C4         1.0     0.781250     0.370370     0.489051    Uiso  ? C
   C1         1.0     0.750000     0.462963     0.489051    Uiso  ? C
   C2         1.0     0.781250     0.518519     0.489051    Uiso  ? C
   C3         1.0     0.750000     0.537037     0.489051    Uiso  ? C
   C4         1.0     0.781250     0.481481     0.489051    Uiso  ? C
   C1         1.0     0.750000     0.574075     0.489051    Uiso  ? C
   C2         1.0     0.781250     0.629630     0.489051    Uiso  ? C
   C3         1.0     0.750000     0.648148     0.489051    Uiso  ? C
   C4         1.0     0.781250     0.592592     0.489051    Uiso  ? C
   C1         1.0     0.812500     0.018519     0.489051    Uiso  ? C
   C2         1.0     0.843750     0.074075     0.489051    Uiso  ? C
   C3         1.0     0.812500     0.092592     0.489051    Uiso  ? C
   C4         1.0     0.843750     0.037037     0.489051    Uiso  ? C
   C1         1.0     0.812500     0.129630     0.489051    Uiso  ? C
   C2         1.0     0.843750     0.185185     0.489051    Uiso  ? C
   C3         1.0     0.812500     0.203703     0.489051    Uiso  ? C
   C4         1.0     0.843750     0.148148     0.489051    Uiso  ? C
   C1         1.0     0.812500     0.240741     0.489051    Uiso  ? C
   C2         1.0     0.843750     0.296297     0.489051    Uiso  ? C
   C3         1.0     0.812500     0.314815     0.489051    Uiso  ? C
   C4         1.0     0.843750     0.259259     0.489051    Uiso  ? C
   C1         1.0     0.812500     0.351852     0.489051    Uiso  ? C
   C2         1.0     0.843750     0.407408     0.489051    Uiso  ? C
   C3         1.0     0.812500     0.425925     0.489051    Uiso  ? C
   C4         1.0     0.843750     0.370370     0.489051    Uiso  ? C
   C1         1.0     0.812500     0.462963     0.489051    Uiso  ? C
   C2         1.0     0.843750     0.518519     0.489051    Uiso  ? C
   C3         1.0     0.812500     0.537037     0.489051    Uiso  ? C
   C4         1.0     0.843750     0.481481     0.489051    Uiso  ? C
   C1         1.0     0.812500     0.574075     0.489051    Uiso  ? C
   C2         1.0     0.843750     0.629630     0.489051    Uiso  ? C
   C3         1.0     0.812500     0.648148     0.489051    Uiso  ? C
   C4         1.0     0.843750     0.592592     0.489051    Uiso  ? C
   C1         1.0     0.875000     0.018519     0.489051    Uiso  ? C
   C2         1.0     0.906250     0.074075     0.489051    Uiso  ? C
   C3         1.0     0.875000     0.092592     0.489051    Uiso  ? C
   C4         1.0     0.906250     0.037037     0.489051    Uiso  ? C
   C1         1.0     0.875000     0.129630     0.489051    Uiso  ? C
   C2         1.0     0.906250     0.185185     0.489051    Uiso  ? C
   C3         1.0     0.875000     0.203703     0.489051    Uiso  ? C
   C4         1.0     0.906250     0.148148     0.489051    Uiso  ? C
   C1         1.0     0.875000     0.240741     0.489051    Uiso  ? C
   C2         1.0     0.906250     0.296297     0.489051    Uiso  ? C
   C3         1.0     0.875000     0.314815     0.489051    Uiso  ? C
   C4         1.0     0.906250     0.259259     0.489051    Uiso  ? C
   C1         1.0     0.875000     0.351852     0.489051    Uiso  ? C
   C2         1.0     0.906250     0.407408     0.489051    Uiso  ? C
   C3         1.0     0.875000     0.425925     0.489051    Uiso  ? C
   C4         1.0     0.906250     0.370370     0.489051    Uiso  ? C
   C1         1.0     0.875000     0.462963     0.489051    Uiso  ? C
   C2         1.0     0.906250     0.518519     0.489051    Uiso  ? C
   C3         1.0     0.875000     0.537037     0.489051    Uiso  ? C
   C4         1.0     0.906250     0.481481     0.489051    Uiso  ? C
   C1         1.0     0.875000     0.574075     0.489051    Uiso  ? C
   C2         1.0     0.906250     0.629630     0.489051    Uiso  ? C
   C3         1.0     0.875000     0.648148     0.489051    Uiso  ? C
   C4         1.0     0.906250     0.592592     0.489051    Uiso  ? C
   C1         1.0     0.937500     0.018519     0.489051    Uiso  ? C
   C2         1.0     0.968750     0.074075     0.489051    Uiso  ? C
   C3         1.0     0.937500     0.092592     0.489051    Uiso  ? C
   C4         1.0     0.968750     0.037037     0.489051    Uiso  ? C
   C1         1.0     0.937500     0.129630     0.489051    Uiso  ? C
   C2         1.0     0.968750     0.185185     0.489051    Uiso  ? C
   C3         1.0     0.937500     0.203703     0.489051    Uiso  ? C
   C4         1.0     0.968750     0.148148     0.489051    Uiso  ? C
   C1         1.0     0.937500     0.240741     0.489051    Uiso  ? C
   C2         1.0     0.968750     0.296297     0.489051    Uiso  ? C
   C3         1.0     0.937500     0.314815     0.489051    Uiso  ? C
   C4         1.0     0.968750     0.259259     0.489051    Uiso  ? C
   C1         1.0     0.937500     0.351852     0.489051    Uiso  ? C
   C2         1.0     0.968750     0.407408     0.489051    Uiso  ? C
   C3         1.0     0.937500     0.425925     0.489051    Uiso  ? C
   C4         1.0     0.968750     0.370370     0.489051    Uiso  ? C
   C1         1.0     0.937500     0.462963     0.489051    Uiso  ? C
   C2         1.0     0.968750     0.518519     0.489051    Uiso  ? C
   C3         1.0     0.937500     0.537037     0.489051    Uiso  ? C
   C4         1.0     0.968750     0.481481     0.489051    Uiso  ? C
   C1         1.0     0.937500     0.574075     0.489051    Uiso  ? C
   C2         1.0     0.968750     0.629630     0.489051    Uiso  ? C
   C3         1.0     0.937500     0.648148     0.489051    Uiso  ? C
   C4         1.0     0.968750     0.592592     0.489051    Uiso  ? C
   C1         1.0     0.000000     0.685186     0.489051    Uiso  ? C
   C1         1.0     0.062500     0.685186     0.489051    Uiso  ? C
   C1         1.0     0.125000     0.685186     0.489051    Uiso  ? C
   C1         1.0     0.187500     0.685186     0.489051    Uiso  ? C
   C1         1.0     0.250000     0.685186     0.489051    Uiso  ? C
   C1         1.0     0.312500     0.685186     0.489051    Uiso  ? C
   C1         1.0     0.375000     0.685186     0.489051    Uiso  ? C
   C1         1.0     0.437500     0.685186     0.489051    Uiso  ? C
   C1         1.0     0.500000     0.685186     0.489051    Uiso  ? C
   C1         1.0     0.562500     0.685186     0.489051    Uiso  ? C
   C1         1.0     0.625000     0.685186     0.489051    Uiso  ? C
   C1         1.0     0.687500     0.685186     0.489051    Uiso  ? C
   C1         1.0     0.750000     0.685186     0.489051    Uiso  ? C
   C1         1.0     0.812500     0.685186     0.489051    Uiso  ? C
   C1         1.0     0.875000     0.685186     0.489051    Uiso  ? C
   C1         1.0     0.937500     0.685186     0.489051    Uiso  ? C
   C2         1.0     0.031250     0.740741     0.489051    Uiso  ? C
   C2         1.0     0.093750     0.740741     0.489051    Uiso  ? C
   C2         1.0     0.156250     0.740741     0.489051    Uiso  ? C
   C2         1.0     0.218750     0.740741     0.489051    Uiso  ? C
   C2         1.0     0.281250     0.740741     0.489051    Uiso  ? C
   C2         1.0     0.343750     0.740741     0.489051    Uiso  ? C
   C2         1.0     0.406250     0.740741     0.489051    Uiso  ? C
   C2         1.0     0.468750     0.740741     0.489051    Uiso  ? C
   C2         1.0     0.531250     0.740741     0.489051    Uiso  ? C
   C2         1.0     0.593750     0.740741     0.489051    Uiso  ? C
   C2         1.0     0.656250     0.740741     0.489051    Uiso  ? C
   C2         1.0     0.718750     0.740741     0.489051    Uiso  ? C
   C2         1.0     0.781250     0.740741     0.489051    Uiso  ? C
   C2         1.0     0.843750     0.740741     0.489051    Uiso  ? C
   C2         1.0     0.906250     0.740741     0.489051    Uiso  ? C
   C2         1.0     0.968750     0.740741     0.489051    Uiso  ? C
   C3         1.0     0.000000     0.759259     0.489051    Uiso  ? C
   C3         1.0     0.062500     0.759259     0.489051    Uiso  ? C
   C3         1.0     0.125000     0.759259     0.489051    Uiso  ? C
   C3         1.0     0.187500     0.759259     0.489051    Uiso  ? C
   C3         1.0     0.250000     0.759259     0.489051    Uiso  ? C
   C3         1.0     0.312500     0.759259     0.489051    Uiso  ? C
   C3         1.0     0.375000     0.759259     0.489051    Uiso  ? C
   C3         1.0     0.437500     0.759259     0.489051    Uiso  ? C
   C3         1.0     0.500000     0.759259     0.489051    Uiso  ? C
   C3         1.0     0.562500     0.759259     0.489051    Uiso  ? C
   C3         1.0     0.625000     0.759259     0.489051    Uiso  ? C
   C3         1.0     0.687500     0.759259     0.489051    Uiso  ? C
   C3         1.0     0.750000     0.759259     0.489051    Uiso  ? C
   C3         1.0     0.812500     0.759259     0.489051    Uiso  ? C
   C3         1.0     0.875000     0.759259     0.489051    Uiso  ? C
   C3         1.0     0.937500     0.759259     0.489051    Uiso  ? C
   C4         1.0     0.031250     0.703703     0.489051    Uiso  ? C
   C4         1.0     0.093750     0.703703     0.489051    Uiso  ? C
   C4         1.0     0.156250     0.703703     0.489051    Uiso  ? C
   C4         1.0     0.218750     0.703703     0.489051    Uiso  ? C
   C4         1.0     0.281250     0.703703     0.489051    Uiso  ? C
   C4         1.0     0.343750     0.703703     0.489051    Uiso  ? C
   C4         1.0     0.406250     0.703703     0.489051    Uiso  ? C
   C4         1.0     0.468750     0.703703     0.489051    Uiso  ? C
   C4         1.0     0.531250     0.703703     0.489051    Uiso  ? C
   C4         1.0     0.593750     0.703703     0.489051    Uiso  ? C
   C4         1.0     0.656250     0.703703     0.489051    Uiso  ? C
   C4         1.0     0.718750     0.703703     0.489051    Uiso  ? C
   C4         1.0     0.781250     0.703703     0.489051    Uiso  ? C
   C4         1.0     0.843750     0.703703     0.489051    Uiso  ? C
   C4         1.0     0.906250     0.703703     0.489051    Uiso  ? C
   C4         1.0     0.968750     0.703703     0.489051    Uiso  ? C
   C1         1.0     0.000000     0.796297     0.489051    Uiso  ? C
   C1         1.0     0.062500     0.796297     0.489051    Uiso  ? C
   C1         1.0     0.125000     0.796297     0.489051    Uiso  ? C
   C1         1.0     0.187500     0.796297     0.489051    Uiso  ? C
   C1         1.0     0.250000     0.796297     0.489051    Uiso  ? C
   C1         1.0     0.312500     0.796297     0.489051    Uiso  ? C
   C1         1.0     0.375000     0.796297     0.489051    Uiso  ? C
   C1         1.0     0.437500     0.796297     0.489051    Uiso  ? C
   C1         1.0     0.500000     0.796297     0.489051    Uiso  ? C
   C1         1.0     0.562500     0.796297     0.489051    Uiso  ? C
   C1         1.0     0.625000     0.796297     0.489051    Uiso  ? C
   C1         1.0     0.687500     0.796297     0.489051    Uiso  ? C
   C1         1.0     0.750000     0.796297     0.489051    Uiso  ? C
   C1         1.0     0.812500     0.796297     0.489051    Uiso  ? C
   C1         1.0     0.875000     0.796297     0.489051    Uiso  ? C
   C1         1.0     0.937500     0.796297     0.489051    Uiso  ? C
   C2         1.0     0.031250     0.851852     0.489051    Uiso  ? C
   C2         1.0     0.093750     0.851852     0.489051    Uiso  ? C
   C2         1.0     0.156250     0.851852     0.489051    Uiso  ? C
   C2         1.0     0.218750     0.851852     0.489051    Uiso  ? C
   C2         1.0     0.281250     0.851852     0.489051    Uiso  ? C
   C2         1.0     0.343750     0.851852     0.489051    Uiso  ? C
   C2         1.0     0.406250     0.851852     0.489051    Uiso  ? C
   C2         1.0     0.468750     0.851852     0.489051    Uiso  ? C
   C2         1.0     0.531250     0.851852     0.489051    Uiso  ? C
   C2         1.0     0.593750     0.851852     0.489051    Uiso  ? C
   C2         1.0     0.656250     0.851852     0.489051    Uiso  ? C
   C2         1.0     0.718750     0.851852     0.489051    Uiso  ? C
   C2         1.0     0.781250     0.851852     0.489051    Uiso  ? C
   C2         1.0     0.843750     0.851852     0.489051    Uiso  ? C
   C2         1.0     0.906250     0.851852     0.489051    Uiso  ? C
   C2         1.0     0.968750     0.851852     0.489051    Uiso  ? C
   C3         1.0     0.000000     0.870370     0.489051    Uiso  ? C
   C3         1.0     0.062500     0.870370     0.489051    Uiso  ? C
   C3         1.0     0.125000     0.870370     0.489051    Uiso  ? C
   C3         1.0     0.187500     0.870370     0.489051    Uiso  ? C
   C3         1.0     0.250000     0.870370     0.489051    Uiso  ? C
   C3         1.0     0.312500     0.870370     0.489051    Uiso  ? C
   C3         1.0     0.375000     0.870370     0.489051    Uiso  ? C
   C3         1.0     0.437500     0.870370     0.489051    Uiso  ? C
   C3         1.0     0.500000     0.870370     0.489051    Uiso  ? C
   C3         1.0     0.562500     0.870370     0.489051    Uiso  ? C
   C3         1.0     0.625000     0.870370     0.489051    Uiso  ? C
   C3         1.0     0.687500     0.870370     0.489051    Uiso  ? C
   C3         1.0     0.750000     0.870370     0.489051    Uiso  ? C
   C3         1.0     0.812500     0.870370     0.489051    Uiso  ? C
   C3         1.0     0.875000     0.870370     0.489051    Uiso  ? C
   C3         1.0     0.937500     0.870370     0.489051    Uiso  ? C
   C4         1.0     0.031250     0.814814     0.489051    Uiso  ? C
   C4         1.0     0.093750     0.814814     0.489051    Uiso  ? C
   C4         1.0     0.156250     0.814814     0.489051    Uiso  ? C
   C4         1.0     0.218750     0.814814     0.489051    Uiso  ? C
   C4         1.0     0.281250     0.814814     0.489051    Uiso  ? C
   C4         1.0     0.343750     0.814814     0.489051    Uiso  ? C
   C4         1.0     0.406250     0.814814     0.489051    Uiso  ? C
   C4         1.0     0.468750     0.814814     0.489051    Uiso  ? C
   C4         1.0     0.531250     0.814814     0.489051    Uiso  ? C
   C4         1.0     0.593750     0.814814     0.489051    Uiso  ? C
   C4         1.0     0.656250     0.814814     0.489051    Uiso  ? C
   C4         1.0     0.718750     0.814814     0.489051    Uiso  ? C
   C4         1.0     0.781250     0.814814     0.489051    Uiso  ? C
   C4         1.0     0.843750     0.814814     0.489051    Uiso  ? C
   C4         1.0     0.906250     0.814814     0.489051    Uiso  ? C
   C4         1.0     0.968750     0.814814     0.489051    Uiso  ? C
   C1         1.0     0.000000     0.907408     0.489051    Uiso  ? C
   C1         1.0     0.062500     0.907408     0.489051    Uiso  ? C
   C1         1.0     0.125000     0.907408     0.489051    Uiso  ? C
   C1         1.0     0.187500     0.907408     0.489051    Uiso  ? C
   C1         1.0     0.250000     0.907408     0.489051    Uiso  ? C
   C1         1.0     0.312500     0.907408     0.489051    Uiso  ? C
   C1         1.0     0.375000     0.907408     0.489051    Uiso  ? C
   C1         1.0     0.437500     0.907408     0.489051    Uiso  ? C
   C1         1.0     0.500000     0.907408     0.489051    Uiso  ? C
   C1         1.0     0.562500     0.907408     0.489051    Uiso  ? C
   C1         1.0     0.625000     0.907408     0.489051    Uiso  ? C
   C1         1.0     0.687500     0.907408     0.489051    Uiso  ? C
   C1         1.0     0.750000     0.907408     0.489051    Uiso  ? C
   C1         1.0     0.812500     0.907408     0.489051    Uiso  ? C
   C1         1.0     0.875000     0.907408     0.489051    Uiso  ? C
   C1         1.0     0.937500     0.907408     0.489051    Uiso  ? C
   C2         1.0     0.031250     0.962963     0.489051    Uiso  ? C
   C2         1.0     0.093750     0.962963     0.489051    Uiso  ? C
   C2         1.0     0.156250     0.962963     0.489051    Uiso  ? C
   C2         1.0     0.218750     0.962963     0.489051    Uiso  ? C
   C2         1.0     0.281250     0.962963     0.489051    Uiso  ? C
   C2         1.0     0.343750     0.962963     0.489051    Uiso  ? C
   C2         1.0     0.406250     0.962963     0.489051    Uiso  ? C
   C2         1.0     0.468750     0.962963     0.489051    Uiso  ? C
   C2         1.0     0.531250     0.962963     0.489051    Uiso  ? C
   C2         1.0     0.593750     0.962963     0.489051    Uiso  ? C
   C2         1.0     0.656250     0.962963     0.489051    Uiso  ? C
   C2         1.0     0.718750     0.962963     0.489051    Uiso  ? C
   C2         1.0     0.781250     0.962963     0.489051    Uiso  ? C
   C2         1.0     0.843750     0.962963     0.489051    Uiso  ? C
   C2         1.0     0.906250     0.962963     0.489051    Uiso  ? C
   C2         1.0     0.968750     0.962963     0.489051    Uiso  ? C
   C3         1.0     0.000000     0.981481     0.489051    Uiso  ? C
   C3         1.0     0.062500     0.981481     0.489051    Uiso  ? C
   C3         1.0     0.125000     0.981481     0.489051    Uiso  ? C
   C3         1.0     0.187500     0.981481     0.489051    Uiso  ? C
   C3         1.0     0.250000     0.981481     0.489051    Uiso  ? C
   C3         1.0     0.312500     0.981481     0.489051    Uiso  ? C
   C3         1.0     0.375000     0.981481     0.489051    Uiso  ? C
   C3         1.0     0.437500     0.981481     0.489051    Uiso  ? C
   C3         1.0     0.500000     0.981481     0.489051    Uiso  ? C
   C3         1.0     0.562500     0.981481     0.489051    Uiso  ? C
   C3         1.0     0.625000     0.981481     0.489051    Uiso  ? C
   C3         1.0     0.687500     0.981481     0.489051    Uiso  ? C
   C3         1.0     0.750000     0.981481     0.489051    Uiso  ? C
   C3         1.0     0.812500     0.981481     0.489051    Uiso  ? C
   C3         1.0     0.875000     0.981481     0.489051    Uiso  ? C
   C3         1.0     0.937500     0.981481     0.489051    Uiso  ? C
   C4         1.0     0.031250     0.925925     0.489051    Uiso  ? C
   C4         1.0     0.093750     0.925925     0.489051    Uiso  ? C
   C4         1.0     0.156250     0.925925     0.489051    Uiso  ? C
   C4         1.0     0.218750     0.925925     0.489051    Uiso  ? C
   C4         1.0     0.281250     0.925925     0.489051    Uiso  ? C
   C4         1.0     0.343750     0.925925     0.489051    Uiso  ? C
   C4         1.0     0.406250     0.925925     0.489051    Uiso  ? C
   C4         1.0     0.468750     0.925925     0.489051    Uiso  ? C
   C4         1.0     0.531250     0.925925     0.489051    Uiso  ? C
   C4         1.0     0.593750     0.925925     0.489051    Uiso  ? C
   C4         1.0     0.656250     0.925925     0.489051    Uiso  ? C
   C4         1.0     0.718750     0.925925     0.489051    Uiso  ? C
   C4         1.0     0.781250     0.925925     0.489051    Uiso  ? C
   C4         1.0     0.843750     0.925925     0.489051    Uiso  ? C
   C4         1.0     0.906250     0.925925     0.489051    Uiso  ? C
   C4         1.0     0.968750     0.925925     0.489051    Uiso  ? C
