data_graphite_ortho

_audit_creation_method RASPA-1.0
_audit_creation_date 2012-2-3
_audit_author_name 'David Dubbeldam'

_cell_length_a    39.36    
_cell_length_b    38.34    
_cell_length_c    12.25    
_cell_angle_alpha 90
_cell_angle_beta  90
_cell_angle_gamma 90
_cell_volume      18486.01      

_symmetry_cell_setting          triclinic
_symmetry_space_group_name_Hall 'P 1'
_symmetry_space_group_name_H-M  'P 1'
_symmetry_Int_Tables_number     1

_symmetry_equiv_pos_as_xyz 'x,y,z'

loop_
_atom_site_label
_atom_site_type_symbol
_atom_site_fract_x
_atom_site_fract_y
_atom_site_fract_z
_atom_site_charge
C_FG        C        0.0        0.018519        0.18952971428571427        0.08        
C2        C        0.03125        0.074075        0.18952971428571427        0        
C3        C        0.0        0.092592        0.18952971428571427        0        
C4        C        0.03125        0.037037        0.18952971428571427        0        
C_FG        C        0.0        0.12963        0.18952971428571427        0.08        
C2        C        0.03125        0.185185        0.18952971428571427        0        
C3        C        0.0        0.203703        0.18952971428571427        0        
C4        C        0.03125        0.148148        0.18952971428571427        0        
C_FG        C        0.0        0.24074099999999998        0.18952971428571427        0.08        
C2        C        0.03125        0.296297        0.18952971428571427        0        
C3        C        0.0        0.314815        0.18952971428571427        0        
C4        C        0.03125        0.259259        0.18952971428571427        0        
C_FG        C        0.0        0.351852        0.18952971428571427        0.08        
C2        C        0.03125        0.407408        0.18952971428571427        0        
C3        C        0.0        0.42592500000000005        0.18952971428571427        0        
C4        C        0.03125        0.37037        0.18952971428571427        0        
C_FG        C        0.0        0.46296300000000007        0.18952971428571427        0.08        
C2        C        0.03125        0.518519        0.18952971428571427        0        
C3        C        0.0        0.537037        0.18952971428571427        0        
C4        C        0.03125        0.481481        0.18952971428571427        0        
C_FG        C        0.0        0.574075        0.18952971428571427        0.08        
C2        C        0.03125        0.62963        0.18952971428571427        0        
C3        C        0.0        0.648148        0.18952971428571427        0        
C4        C        0.03125        0.592592        0.18952971428571427        0        
C1        C        0.0625        0.018519        0.18952971428571427        0        
C2        C        0.09375        0.074075        0.18952971428571427        0        
C3        C        0.0625        0.092592        0.18952971428571427        0        
C4        C        0.09375        0.037037        0.18952971428571427        0        
C1        C        0.0625        0.12963        0.18952971428571427        0        
C2        C        0.09375        0.185185        0.18952971428571427        0        
C3        C        0.0625        0.203703        0.18952971428571427        0        
C4        C        0.09375        0.148148        0.18952971428571427        0        
C1        C        0.0625        0.24074099999999998        0.18952971428571427        0        
C2        C        0.09375        0.296297        0.18952971428571427        0        
C3        C        0.0625        0.314815        0.18952971428571427        0        
C4        C        0.09375        0.259259        0.18952971428571427        0        
C1        C        0.0625        0.351852        0.18952971428571427        0        
C2        C        0.09375        0.407408        0.18952971428571427        0        
C3        C        0.0625        0.42592500000000005        0.18952971428571427        0        
C4        C        0.09375        0.37037        0.18952971428571427        0        
C1        C        0.0625        0.46296300000000007        0.18952971428571427        0        
C2        C        0.09375        0.518519        0.18952971428571427        0        
C3        C        0.0625        0.537037        0.18952971428571427        0        
C4        C        0.09375        0.481481        0.18952971428571427        0        
C1        C        0.0625        0.574075        0.18952971428571427        0        
C2        C        0.09375        0.62963        0.18952971428571427        0        
C3        C        0.0625        0.648148        0.18952971428571427        0        
C4        C        0.09375        0.592592        0.18952971428571427        0        
C1        C        0.125        0.018519        0.18952971428571427        0        
C2        C        0.15625        0.074075        0.18952971428571427        0        
C3        C        0.125        0.092592        0.18952971428571427        0        
C4        C        0.15625        0.037037        0.18952971428571427        0        
C1        C        0.125        0.12963        0.18952971428571427        0        
C2        C        0.15625        0.185185        0.18952971428571427        0        
C3        C        0.125        0.203703        0.18952971428571427        0        
C4        C        0.15625        0.148148        0.18952971428571427        0        
C1        C        0.125        0.24074099999999998        0.18952971428571427        0        
C2        C        0.15625        0.296297        0.18952971428571427        0        
C3        C        0.125        0.314815        0.18952971428571427        0        
C4        C        0.15625        0.259259        0.18952971428571427        0        
C1        C        0.125        0.351852        0.18952971428571427        0        
C2        C        0.15625        0.407408        0.18952971428571427        0        
C3        C        0.125        0.42592500000000005        0.18952971428571427        0        
C4        C        0.15625        0.37037        0.18952971428571427        0        
C1        C        0.125        0.46296300000000007        0.18952971428571427        0        
C2        C        0.15625        0.518519        0.18952971428571427        0        
C3        C        0.125        0.537037        0.18952971428571427        0        
C4        C        0.15625        0.481481        0.18952971428571427        0        
C1        C        0.125        0.574075        0.18952971428571427        0        
C2        C        0.15625        0.62963        0.18952971428571427        0        
C3        C        0.125        0.648148        0.18952971428571427        0        
C4        C        0.15625        0.592592        0.18952971428571427        0        
C1        C        0.1875        0.018519        0.18952971428571427        0        
C2        C        0.21875        0.074075        0.18952971428571427        0        
C3        C        0.1875        0.092592        0.18952971428571427        0        
C4        C        0.21875        0.037037        0.18952971428571427        0        
C1        C        0.1875        0.12963        0.18952971428571427        0        
C2        C        0.21875        0.185185        0.18952971428571427        0        
C3        C        0.1875        0.203703        0.18952971428571427        0        
C4        C        0.21875        0.148148        0.18952971428571427        0        
C1        C        0.1875        0.24074099999999998        0.18952971428571427        0        
C2        C        0.21875        0.296297        0.18952971428571427        0        
C3        C        0.1875        0.314815        0.18952971428571427        0        
C4        C        0.21875        0.259259        0.18952971428571427        0        
C1        C        0.1875        0.351852        0.18952971428571427        0        
C2        C        0.21875        0.407408        0.18952971428571427        0        
C3        C        0.1875        0.42592500000000005        0.18952971428571427        0        
C4        C        0.21875        0.37037        0.18952971428571427        0        
C1        C        0.1875        0.46296300000000007        0.18952971428571427        0        
C2        C        0.21875        0.518519        0.18952971428571427        0        
C3        C        0.1875        0.537037        0.18952971428571427        0        
C4        C        0.21875        0.481481        0.18952971428571427        0        
C1        C        0.1875        0.574075        0.18952971428571427        0        
C2        C        0.21875        0.62963        0.18952971428571427        0        
C3        C        0.1875        0.648148        0.18952971428571427        0        
C4        C        0.21875        0.592592        0.18952971428571427        0        
C_FG        C        0.25        0.018519        0.18952971428571427        0.08        
C2        C        0.28125        0.074075        0.18952971428571427        0        
C3        C        0.25        0.092592        0.18952971428571427        0        
C4        C        0.28125        0.037037        0.18952971428571427        0        
C_FG        C        0.25        0.12963        0.18952971428571427        0.08        
C2        C        0.28125        0.185185        0.18952971428571427        0        
C3        C        0.25        0.203703        0.18952971428571427        0        
C4        C        0.28125        0.148148        0.18952971428571427        0        
C_FG        C        0.25        0.24074099999999998        0.18952971428571427        0.08        
C2        C        0.28125        0.296297        0.18952971428571427        0        
C3        C        0.25        0.314815        0.18952971428571427        0        
C4        C        0.28125        0.259259        0.18952971428571427        0        
C_FG        C        0.25        0.351852        0.18952971428571427        0.08        
C2        C        0.28125        0.407408        0.18952971428571427        0        
C3        C        0.25        0.42592500000000005        0.18952971428571427        0        
C4        C        0.28125        0.37037        0.18952971428571427        0        
C_FG        C        0.25        0.46296300000000007        0.18952971428571427        0.08        
C2        C        0.28125        0.518519        0.18952971428571427        0        
C3        C        0.25        0.537037        0.18952971428571427        0        
C4        C        0.28125        0.481481        0.18952971428571427        0        
C_FG        C        0.25        0.574075        0.18952971428571427        0.08        
C2        C        0.28125        0.62963        0.18952971428571427        0        
C3        C        0.25        0.648148        0.18952971428571427        0        
C4        C        0.28125        0.592592        0.18952971428571427        0        
C1        C        0.3125        0.018519        0.18952971428571427        0        
C2        C        0.34375        0.074075        0.18952971428571427        0        
C3        C        0.3125        0.092592        0.18952971428571427        0        
C4        C        0.34375        0.037037        0.18952971428571427        0        
C1        C        0.3125        0.12963        0.18952971428571427        0        
C2        C        0.34375        0.185185        0.18952971428571427        0        
C3        C        0.3125        0.203703        0.18952971428571427        0        
C4        C        0.34375        0.148148        0.18952971428571427        0        
C1        C        0.3125        0.24074099999999998        0.18952971428571427        0        
C2        C        0.34375        0.296297        0.18952971428571427        0        
C3        C        0.3125        0.314815        0.18952971428571427        0        
C4        C        0.34375        0.259259        0.18952971428571427        0        
C1        C        0.3125        0.351852        0.18952971428571427        0        
C2        C        0.34375        0.407408        0.18952971428571427        0        
C3        C        0.3125        0.42592500000000005        0.18952971428571427        0        
C4        C        0.34375        0.37037        0.18952971428571427        0        
C1        C        0.3125        0.46296300000000007        0.18952971428571427        0        
C2        C        0.34375        0.518519        0.18952971428571427        0        
C3        C        0.3125        0.537037        0.18952971428571427        0        
C4        C        0.34375        0.481481        0.18952971428571427        0        
C1        C        0.3125        0.574075        0.18952971428571427        0        
C2        C        0.34375        0.62963        0.18952971428571427        0        
C3        C        0.3125        0.648148        0.18952971428571427        0        
C4        C        0.34375        0.592592        0.18952971428571427        0        
C1        C        0.375        0.018519        0.18952971428571427        0        
C2        C        0.40625        0.074075        0.18952971428571427        0        
C3        C        0.375        0.092592        0.18952971428571427        0        
C4        C        0.40625        0.037037        0.18952971428571427        0        
C1        C        0.375        0.12963        0.18952971428571427        0        
C2        C        0.40625        0.185185        0.18952971428571427        0        
C3        C        0.375        0.203703        0.18952971428571427        0        
C4        C        0.40625        0.148148        0.18952971428571427        0        
C1        C        0.375        0.24074099999999998        0.18952971428571427        0        
C2        C        0.40625        0.296297        0.18952971428571427        0        
C3        C        0.375        0.314815        0.18952971428571427        0        
C4        C        0.40625        0.259259        0.18952971428571427        0        
C1        C        0.375        0.351852        0.18952971428571427        0        
C2        C        0.40625        0.407408        0.18952971428571427        0        
C3        C        0.375        0.42592500000000005        0.18952971428571427        0        
C4        C        0.40625        0.37037        0.18952971428571427        0        
C1        C        0.375        0.46296300000000007        0.18952971428571427        0        
C2        C        0.40625        0.518519        0.18952971428571427        0        
C3        C        0.375        0.537037        0.18952971428571427        0        
C4        C        0.40625        0.481481        0.18952971428571427        0        
C1        C        0.375        0.574075        0.18952971428571427        0        
C2        C        0.40625        0.62963        0.18952971428571427        0        
C3        C        0.375        0.648148        0.18952971428571427        0        
C4        C        0.40625        0.592592        0.18952971428571427        0        
C1        C        0.4375        0.018519        0.18952971428571427        0        
C2        C        0.46875        0.074075        0.18952971428571427        0        
C3        C        0.4375        0.092592        0.18952971428571427        0        
C4        C        0.46875        0.037037        0.18952971428571427        0        
C1        C        0.4375        0.12963        0.18952971428571427        0        
C2        C        0.46875        0.185185        0.18952971428571427        0        
C3        C        0.4375        0.203703        0.18952971428571427        0        
C4        C        0.46875        0.148148        0.18952971428571427        0        
C1        C        0.4375        0.24074099999999998        0.18952971428571427        0        
C2        C        0.46875        0.296297        0.18952971428571427        0        
C3        C        0.4375        0.314815        0.18952971428571427        0        
C4        C        0.46875        0.259259        0.18952971428571427        0        
C1        C        0.4375        0.351852        0.18952971428571427        0        
C2        C        0.46875        0.407408        0.18952971428571427        0        
C3        C        0.4375        0.42592500000000005        0.18952971428571427        0        
C4        C        0.46875        0.37037        0.18952971428571427        0        
C1        C        0.4375        0.46296300000000007        0.18952971428571427        0        
C2        C        0.46875        0.518519        0.18952971428571427        0        
C3        C        0.4375        0.537037        0.18952971428571427        0        
C4        C        0.46875        0.481481        0.18952971428571427        0        
C1        C        0.4375        0.574075        0.18952971428571427        0        
C2        C        0.46875        0.62963        0.18952971428571427        0        
C3        C        0.4375        0.648148        0.18952971428571427        0        
C4        C        0.46875        0.592592        0.18952971428571427        0        
C_FG        C        0.5        0.018519        0.18952971428571427        0.08        
C2        C        0.53125        0.074075        0.18952971428571427        0        
C3        C        0.5        0.092592        0.18952971428571427        0        
C4        C        0.53125        0.037037        0.18952971428571427        0        
C_FG        C        0.5        0.12963        0.18952971428571427        0.08        
C2        C        0.53125        0.185185        0.18952971428571427        0        
C3        C        0.5        0.203703        0.18952971428571427        0        
C4        C        0.53125        0.148148        0.18952971428571427        0        
C_FG        C        0.5        0.24074099999999998        0.18952971428571427        0.08        
C2        C        0.53125        0.296297        0.18952971428571427        0        
C3        C        0.5        0.314815        0.18952971428571427        0        
C4        C        0.53125        0.259259        0.18952971428571427        0        
C_FG        C        0.5        0.351852        0.18952971428571427        0.08        
C2        C        0.53125        0.407408        0.18952971428571427        0        
C3        C        0.5        0.42592500000000005        0.18952971428571427        0        
C4        C        0.53125        0.37037        0.18952971428571427        0        
C_FG        C        0.5        0.46296300000000007        0.18952971428571427        0.08        
C2        C        0.53125        0.518519        0.18952971428571427        0        
C3        C        0.5        0.537037        0.18952971428571427        0        
C4        C        0.53125        0.481481        0.18952971428571427        0        
C_FG        C        0.5        0.574075        0.18952971428571427        0.08        
C2        C        0.53125        0.62963        0.18952971428571427        0        
C3        C        0.5        0.648148        0.18952971428571427        0        
C4        C        0.53125        0.592592        0.18952971428571427        0        
C1        C        0.5625        0.018519        0.18952971428571427        0        
C2        C        0.59375        0.074075        0.18952971428571427        0        
C3        C        0.5625        0.092592        0.18952971428571427        0        
C4        C        0.59375        0.037037        0.18952971428571427        0        
C1        C        0.5625        0.12963        0.18952971428571427        0        
C2        C        0.59375        0.185185        0.18952971428571427        0        
C3        C        0.5625        0.203703        0.18952971428571427        0        
C4        C        0.59375        0.148148        0.18952971428571427        0        
C1        C        0.5625        0.24074099999999998        0.18952971428571427        0        
C2        C        0.59375        0.296297        0.18952971428571427        0        
C3        C        0.5625        0.314815        0.18952971428571427        0        
C4        C        0.59375        0.259259        0.18952971428571427        0        
C1        C        0.5625        0.351852        0.18952971428571427        0        
C2        C        0.59375        0.407408        0.18952971428571427        0        
C3        C        0.5625        0.42592500000000005        0.18952971428571427        0        
C4        C        0.59375        0.37037        0.18952971428571427        0        
C1        C        0.5625        0.46296300000000007        0.18952971428571427        0        
C2        C        0.59375        0.518519        0.18952971428571427        0        
C3        C        0.5625        0.537037        0.18952971428571427        0        
C4        C        0.59375        0.481481        0.18952971428571427        0        
C1        C        0.5625        0.574075        0.18952971428571427        0        
C2        C        0.59375        0.62963        0.18952971428571427        0        
C3        C        0.5625        0.648148        0.18952971428571427        0        
C4        C        0.59375        0.592592        0.18952971428571427        0        
C1        C        0.625        0.018519        0.18952971428571427        0        
C2        C        0.65625        0.074075        0.18952971428571427        0        
C3        C        0.625        0.092592        0.18952971428571427        0        
C4        C        0.65625        0.037037        0.18952971428571427        0        
C1        C        0.625        0.12963        0.18952971428571427        0        
C2        C        0.65625        0.185185        0.18952971428571427        0        
C3        C        0.625        0.203703        0.18952971428571427        0        
C4        C        0.65625        0.148148        0.18952971428571427        0        
C1        C        0.625        0.24074099999999998        0.18952971428571427        0        
C2        C        0.65625        0.296297        0.18952971428571427        0        
C3        C        0.625        0.314815        0.18952971428571427        0        
C4        C        0.65625        0.259259        0.18952971428571427        0        
C1        C        0.625        0.351852        0.18952971428571427        0        
C2        C        0.65625        0.407408        0.18952971428571427        0        
C3        C        0.625        0.42592500000000005        0.18952971428571427        0        
C4        C        0.65625        0.37037        0.18952971428571427        0        
C1        C        0.625        0.46296300000000007        0.18952971428571427        0        
C2        C        0.65625        0.518519        0.18952971428571427        0        
C3        C        0.625        0.537037        0.18952971428571427        0        
C4        C        0.65625        0.481481        0.18952971428571427        0        
C1        C        0.625        0.574075        0.18952971428571427        0        
C2        C        0.65625        0.62963        0.18952971428571427        0        
C3        C        0.625        0.648148        0.18952971428571427        0        
C4        C        0.65625        0.592592        0.18952971428571427        0        
C1        C        0.6875        0.018519        0.18952971428571427        0        
C2        C        0.71875        0.074075        0.18952971428571427        0        
C3        C        0.6875        0.092592        0.18952971428571427        0        
C4        C        0.71875        0.037037        0.18952971428571427        0        
C1        C        0.6875        0.12963        0.18952971428571427        0        
C2        C        0.71875        0.185185        0.18952971428571427        0        
C3        C        0.6875        0.203703        0.18952971428571427        0        
C4        C        0.71875        0.148148        0.18952971428571427        0        
C1        C        0.6875        0.24074099999999998        0.18952971428571427        0        
C2        C        0.71875        0.296297        0.18952971428571427        0        
C3        C        0.6875        0.314815        0.18952971428571427        0        
C4        C        0.71875        0.259259        0.18952971428571427        0        
C1        C        0.6875        0.351852        0.18952971428571427        0        
C2        C        0.71875        0.407408        0.18952971428571427        0        
C3        C        0.6875        0.42592500000000005        0.18952971428571427        0        
C4        C        0.71875        0.37037        0.18952971428571427        0        
C1        C        0.6875        0.46296300000000007        0.18952971428571427        0        
C2        C        0.71875        0.518519        0.18952971428571427        0        
C3        C        0.6875        0.537037        0.18952971428571427        0        
C4        C        0.71875        0.481481        0.18952971428571427        0        
C1        C        0.6875        0.574075        0.18952971428571427        0        
C2        C        0.71875        0.62963        0.18952971428571427        0        
C3        C        0.6875        0.648148        0.18952971428571427        0        
C4        C        0.71875        0.592592        0.18952971428571427        0        
C_FG        C        0.75        0.018519        0.18952971428571427        0.08        
C2        C        0.78125        0.074075        0.18952971428571427        0        
C3        C        0.75        0.092592        0.18952971428571427        0        
C4        C        0.78125        0.037037        0.18952971428571427        0        
C_FG        C        0.75        0.12963        0.18952971428571427        0.08        
C2        C        0.78125        0.185185        0.18952971428571427        0        
C3        C        0.75        0.203703        0.18952971428571427        0        
C4        C        0.78125        0.148148        0.18952971428571427        0        
C_FG        C        0.75        0.24074099999999998        0.18952971428571427        0.08        
C2        C        0.78125        0.296297        0.18952971428571427        0        
C3        C        0.75        0.314815        0.18952971428571427        0        
C4        C        0.78125        0.259259        0.18952971428571427        0        
C_FG        C        0.75        0.351852        0.18952971428571427        0.08        
C2        C        0.78125        0.407408        0.18952971428571427        0        
C3        C        0.75        0.42592500000000005        0.18952971428571427        0        
C4        C        0.78125        0.37037        0.18952971428571427        0        
C_FG        C        0.75        0.46296300000000007        0.18952971428571427        0.08        
C2        C        0.78125        0.518519        0.18952971428571427        0        
C3        C        0.75        0.537037        0.18952971428571427        0        
C4        C        0.78125        0.481481        0.18952971428571427        0        
C_FG        C        0.75        0.574075        0.18952971428571427        0.08        
C2        C        0.78125        0.62963        0.18952971428571427        0        
C3        C        0.75        0.648148        0.18952971428571427        0        
C4        C        0.78125        0.592592        0.18952971428571427        0        
C1        C        0.8125        0.018519        0.18952971428571427        0        
C2        C        0.84375        0.074075        0.18952971428571427        0        
C3        C        0.8125        0.092592        0.18952971428571427        0        
C4        C        0.84375        0.037037        0.18952971428571427        0        
C1        C        0.8125        0.12963        0.18952971428571427        0        
C2        C        0.84375        0.185185        0.18952971428571427        0        
C3        C        0.8125        0.203703        0.18952971428571427        0        
C4        C        0.84375        0.148148        0.18952971428571427        0        
C1        C        0.8125        0.24074099999999998        0.18952971428571427        0        
C2        C        0.84375        0.296297        0.18952971428571427        0        
C3        C        0.8125        0.314815        0.18952971428571427        0        
C4        C        0.84375        0.259259        0.18952971428571427        0        
C1        C        0.8125        0.351852        0.18952971428571427        0        
C2        C        0.84375        0.407408        0.18952971428571427        0        
C3        C        0.8125        0.42592500000000005        0.18952971428571427        0        
C4        C        0.84375        0.37037        0.18952971428571427        0        
C1        C        0.8125        0.46296300000000007        0.18952971428571427        0        
C2        C        0.84375        0.518519        0.18952971428571427        0        
C3        C        0.8125        0.537037        0.18952971428571427        0        
C4        C        0.84375        0.481481        0.18952971428571427        0        
C1        C        0.8125        0.574075        0.18952971428571427        0        
C2        C        0.84375        0.62963        0.18952971428571427        0        
C3        C        0.8125        0.648148        0.18952971428571427        0        
C4        C        0.84375        0.592592        0.18952971428571427        0        
C1        C        0.875        0.018519        0.18952971428571427        0        
C2        C        0.9062500000000001        0.074075        0.18952971428571427        0        
C3        C        0.875        0.092592        0.18952971428571427        0        
C4        C        0.9062500000000001        0.037037        0.18952971428571427        0        
C1        C        0.875        0.12963        0.18952971428571427        0        
C2        C        0.9062500000000001        0.185185        0.18952971428571427        0        
C3        C        0.875        0.203703        0.18952971428571427        0        
C4        C        0.9062500000000001        0.148148        0.18952971428571427        0        
C1        C        0.875        0.24074099999999998        0.18952971428571427        0        
C2        C        0.9062500000000001        0.296297        0.18952971428571427        0        
C3        C        0.875        0.314815        0.18952971428571427        0        
C4        C        0.9062500000000001        0.259259        0.18952971428571427        0        
C1        C        0.875        0.351852        0.18952971428571427        0        
C2        C        0.9062500000000001        0.407408        0.18952971428571427        0        
C3        C        0.875        0.42592500000000005        0.18952971428571427        0        
C4        C        0.9062500000000001        0.37037        0.18952971428571427        0        
C1        C        0.875        0.46296300000000007        0.18952971428571427        0        
C2        C        0.9062500000000001        0.518519        0.18952971428571427        0        
C3        C        0.875        0.537037        0.18952971428571427        0        
C4        C        0.9062500000000001        0.481481        0.18952971428571427        0        
C1        C        0.875        0.574075        0.18952971428571427        0        
C2        C        0.9062500000000001        0.62963        0.18952971428571427        0        
C3        C        0.875        0.648148        0.18952971428571427        0        
C4        C        0.9062500000000001        0.592592        0.18952971428571427        0        
C1        C        0.9375        0.018519        0.18952971428571427        0        
C2        C        0.9687500000000001        0.074075        0.18952971428571427        0        
C3        C        0.9375        0.092592        0.18952971428571427        0        
C4        C        0.9687500000000001        0.037037        0.18952971428571427        0        
C1        C        0.9375        0.12963        0.18952971428571427        0        
C2        C        0.9687500000000001        0.185185        0.18952971428571427        0        
C3        C        0.9375        0.203703        0.18952971428571427        0        
C4        C        0.9687500000000001        0.148148        0.18952971428571427        0        
C1        C        0.9375        0.24074099999999998        0.18952971428571427        0        
C2        C        0.9687500000000001        0.296297        0.18952971428571427        0        
C3        C        0.9375        0.314815        0.18952971428571427        0        
C4        C        0.9687500000000001        0.259259        0.18952971428571427        0        
C1        C        0.9375        0.351852        0.18952971428571427        0        
C2        C        0.9687500000000001        0.407408        0.18952971428571427        0        
C3        C        0.9375        0.42592500000000005        0.18952971428571427        0        
C4        C        0.9687500000000001        0.37037        0.18952971428571427        0        
C1        C        0.9375        0.46296300000000007        0.18952971428571427        0        
C2        C        0.9687500000000001        0.518519        0.18952971428571427        0        
C3        C        0.9375        0.537037        0.18952971428571427        0        
C4        C        0.9687500000000001        0.481481        0.18952971428571427        0        
C1        C        0.9375        0.574075        0.18952971428571427        0        
C2        C        0.9687500000000001        0.62963        0.18952971428571427        0        
C3        C        0.9375        0.648148        0.18952971428571427        0        
C4        C        0.9687500000000001        0.592592        0.18952971428571427        0        
C_FG        C        0.0        0.685186        0.18952971428571427        0.08        
C1        C        0.0625        0.685186        0.18952971428571427        0        
C1        C        0.125        0.685186        0.18952971428571427        0        
C1        C        0.1875        0.685186        0.18952971428571427        0        
C_FG        C        0.25        0.685186        0.18952971428571427        0.08        
C1        C        0.3125        0.685186        0.18952971428571427        0        
C1        C        0.375        0.685186        0.18952971428571427        0        
C1        C        0.4375        0.685186        0.18952971428571427        0        
C_FG        C        0.5        0.685186        0.18952971428571427        0.08        
C1        C        0.5625        0.685186        0.18952971428571427        0        
C1        C        0.625        0.685186        0.18952971428571427        0        
C1        C        0.6875        0.685186        0.18952971428571427        0        
C_FG        C        0.75        0.685186        0.18952971428571427        0.08        
C1        C        0.8125        0.685186        0.18952971428571427        0        
C1        C        0.875        0.685186        0.18952971428571427        0        
C1        C        0.9375        0.685186        0.18952971428571427        0        
C2        C        0.03125        0.740741        0.18952971428571427        0        
C2        C        0.09375        0.740741        0.18952971428571427        0        
C2        C        0.15625        0.740741        0.18952971428571427        0        
C2        C        0.21875        0.740741        0.18952971428571427        0        
C2        C        0.28125        0.740741        0.18952971428571427        0        
C2        C        0.34375        0.740741        0.18952971428571427        0        
C2        C        0.40625        0.740741        0.18952971428571427        0        
C2        C        0.46875        0.740741        0.18952971428571427        0        
C2        C        0.53125        0.740741        0.18952971428571427        0        
C2        C        0.59375        0.740741        0.18952971428571427        0        
C2        C        0.65625        0.740741        0.18952971428571427        0        
C2        C        0.71875        0.740741        0.18952971428571427        0        
C2        C        0.78125        0.740741        0.18952971428571427        0        
C2        C        0.84375        0.740741        0.18952971428571427        0        
C2        C        0.9062500000000001        0.740741        0.18952971428571427        0        
C2        C        0.9687500000000001        0.740741        0.18952971428571427        0        
C3        C        0.0        0.759259        0.18952971428571427        0        
C3        C        0.0625        0.759259        0.18952971428571427        0        
C3        C        0.125        0.759259        0.18952971428571427        0        
C3        C        0.1875        0.759259        0.18952971428571427        0        
C3        C        0.25        0.759259        0.18952971428571427        0        
C3        C        0.3125        0.759259        0.18952971428571427        0        
C3        C        0.375        0.759259        0.18952971428571427        0        
C3        C        0.4375        0.759259        0.18952971428571427        0        
C3        C        0.5        0.759259        0.18952971428571427        0        
C3        C        0.5625        0.759259        0.18952971428571427        0        
C3        C        0.625        0.759259        0.18952971428571427        0        
C3        C        0.6875        0.759259        0.18952971428571427        0        
C3        C        0.75        0.759259        0.18952971428571427        0        
C3        C        0.8125        0.759259        0.18952971428571427        0        
C3        C        0.875        0.759259        0.18952971428571427        0        
C3        C        0.9375        0.759259        0.18952971428571427        0        
C4        C        0.03125        0.703703        0.18952971428571427        0        
C4        C        0.09375        0.703703        0.18952971428571427        0        
C4        C        0.15625        0.703703        0.18952971428571427        0        
C4        C        0.21875        0.703703        0.18952971428571427        0        
C4        C        0.28125        0.703703        0.18952971428571427        0        
C4        C        0.34375        0.703703        0.18952971428571427        0        
C4        C        0.40625        0.703703        0.18952971428571427        0        
C4        C        0.46875        0.703703        0.18952971428571427        0        
C4        C        0.53125        0.703703        0.18952971428571427        0        
C4        C        0.59375        0.703703        0.18952971428571427        0        
C4        C        0.65625        0.703703        0.18952971428571427        0        
C4        C        0.71875        0.703703        0.18952971428571427        0        
C4        C        0.78125        0.703703        0.18952971428571427        0        
C4        C        0.84375        0.703703        0.18952971428571427        0        
C4        C        0.9062500000000001        0.703703        0.18952971428571427        0        
C4        C        0.9687500000000001        0.703703        0.18952971428571427        0        
C_FG        C        0.0        0.796297        0.18952971428571427        0.08        
C1        C        0.0625        0.796297        0.18952971428571427        0        
C1        C        0.125        0.796297        0.18952971428571427        0        
C1        C        0.1875        0.796297        0.18952971428571427        0        
C_FG        C        0.25        0.796297        0.18952971428571427        0.08        
C1        C        0.3125        0.796297        0.18952971428571427        0        
C1        C        0.375        0.796297        0.18952971428571427        0        
C1        C        0.4375        0.796297        0.18952971428571427        0        
C_FG        C        0.5        0.796297        0.18952971428571427        0.08        
C1        C        0.5625        0.796297        0.18952971428571427        0        
C1        C        0.625        0.796297        0.18952971428571427        0        
C1        C        0.6875        0.796297        0.18952971428571427        0        
C_FG        C        0.75        0.796297        0.18952971428571427        0.08        
C1        C        0.8125        0.796297        0.18952971428571427        0        
C1        C        0.875        0.796297        0.18952971428571427        0        
C1        C        0.9375        0.796297        0.18952971428571427        0        
C2        C        0.03125        0.851852        0.18952971428571427        0        
C2        C        0.09375        0.851852        0.18952971428571427        0        
C2        C        0.15625        0.851852        0.18952971428571427        0        
C2        C        0.21875        0.851852        0.18952971428571427        0        
C2        C        0.28125        0.851852        0.18952971428571427        0        
C2        C        0.34375        0.851852        0.18952971428571427        0        
C2        C        0.40625        0.851852        0.18952971428571427        0        
C2        C        0.46875        0.851852        0.18952971428571427        0        
C2        C        0.53125        0.851852        0.18952971428571427        0        
C2        C        0.59375        0.851852        0.18952971428571427        0        
C2        C        0.65625        0.851852        0.18952971428571427        0        
C2        C        0.71875        0.851852        0.18952971428571427        0        
C2        C        0.78125        0.851852        0.18952971428571427        0        
C2        C        0.84375        0.851852        0.18952971428571427        0        
C2        C        0.9062500000000001        0.851852        0.18952971428571427        0        
C2        C        0.9687500000000001        0.851852        0.18952971428571427        0        
C3        C        0.0        0.87037        0.18952971428571427        0        
C3        C        0.0625        0.87037        0.18952971428571427        0        
C3        C        0.125        0.87037        0.18952971428571427        0        
C3        C        0.1875        0.87037        0.18952971428571427        0        
C3        C        0.25        0.87037        0.18952971428571427        0        
C3        C        0.3125        0.87037        0.18952971428571427        0        
C3        C        0.375        0.87037        0.18952971428571427        0        
C3        C        0.4375        0.87037        0.18952971428571427        0        
C3        C        0.5        0.87037        0.18952971428571427        0        
C3        C        0.5625        0.87037        0.18952971428571427        0        
C3        C        0.625        0.87037        0.18952971428571427        0        
C3        C        0.6875        0.87037        0.18952971428571427        0        
C3        C        0.75        0.87037        0.18952971428571427        0        
C3        C        0.8125        0.87037        0.18952971428571427        0        
C3        C        0.875        0.87037        0.18952971428571427        0        
C3        C        0.9375        0.87037        0.18952971428571427        0        
C4        C        0.03125        0.814814        0.18952971428571427        0        
C4        C        0.09375        0.814814        0.18952971428571427        0        
C4        C        0.15625        0.814814        0.18952971428571427        0        
C4        C        0.21875        0.814814        0.18952971428571427        0        
C4        C        0.28125        0.814814        0.18952971428571427        0        
C4        C        0.34375        0.814814        0.18952971428571427        0        
C4        C        0.40625        0.814814        0.18952971428571427        0        
C4        C        0.46875        0.814814        0.18952971428571427        0        
C4        C        0.53125        0.814814        0.18952971428571427        0        
C4        C        0.59375        0.814814        0.18952971428571427        0        
C4        C        0.65625        0.814814        0.18952971428571427        0        
C4        C        0.71875        0.814814        0.18952971428571427        0        
C4        C        0.78125        0.814814        0.18952971428571427        0        
C4        C        0.84375        0.814814        0.18952971428571427        0        
C4        C        0.9062500000000001        0.814814        0.18952971428571427        0        
C4        C        0.9687500000000001        0.814814        0.18952971428571427        0        
C_FG        C        0.0        0.907408        0.18952971428571427        0.08        
C1        C        0.0625        0.907408        0.18952971428571427        0        
C1        C        0.125        0.907408        0.18952971428571427        0        
C1        C        0.1875        0.907408        0.18952971428571427        0        
C_FG        C        0.25        0.907408        0.18952971428571427        0.08        
C1        C        0.3125        0.907408        0.18952971428571427        0        
C1        C        0.375        0.907408        0.18952971428571427        0        
C1        C        0.4375        0.907408        0.18952971428571427        0        
C_FG        C        0.5        0.907408        0.18952971428571427        0.08        
C1        C        0.5625        0.907408        0.18952971428571427        0        
C1        C        0.625        0.907408        0.18952971428571427        0        
C1        C        0.6875        0.907408        0.18952971428571427        0        
C_FG        C        0.75        0.907408        0.18952971428571427        0.08        
C1        C        0.8125        0.907408        0.18952971428571427        0        
C1        C        0.875        0.907408        0.18952971428571427        0        
C1        C        0.9375        0.907408        0.18952971428571427        0        
C2        C        0.03125        0.962963        0.18952971428571427        0        
C2        C        0.09375        0.962963        0.18952971428571427        0        
C2        C        0.15625        0.962963        0.18952971428571427        0        
C2        C        0.21875        0.962963        0.18952971428571427        0        
C2        C        0.28125        0.962963        0.18952971428571427        0        
C2        C        0.34375        0.962963        0.18952971428571427        0        
C2        C        0.40625        0.962963        0.18952971428571427        0        
C2        C        0.46875        0.962963        0.18952971428571427        0        
C2        C        0.53125        0.962963        0.18952971428571427        0        
C2        C        0.59375        0.962963        0.18952971428571427        0        
C2        C        0.65625        0.962963        0.18952971428571427        0        
C2        C        0.71875        0.962963        0.18952971428571427        0        
C2        C        0.78125        0.962963        0.18952971428571427        0        
C2        C        0.84375        0.962963        0.18952971428571427        0        
C2        C        0.9062500000000001        0.962963        0.18952971428571427        0        
C2        C        0.9687500000000001        0.962963        0.18952971428571427        0        
C3        C        0.0        0.9814809999999999        0.18952971428571427        0        
C3        C        0.0625        0.9814809999999999        0.18952971428571427        0        
C3        C        0.125        0.9814809999999999        0.18952971428571427        0        
C3        C        0.1875        0.9814809999999999        0.18952971428571427        0        
C3        C        0.25        0.9814809999999999        0.18952971428571427        0        
C3        C        0.3125        0.9814809999999999        0.18952971428571427        0        
C3        C        0.375        0.9814809999999999        0.18952971428571427        0        
C3        C        0.4375        0.9814809999999999        0.18952971428571427        0        
C3        C        0.5        0.9814809999999999        0.18952971428571427        0        
C3        C        0.5625        0.9814809999999999        0.18952971428571427        0        
C3        C        0.625        0.9814809999999999        0.18952971428571427        0        
C3        C        0.6875        0.9814809999999999        0.18952971428571427        0        
C3        C        0.75        0.9814809999999999        0.18952971428571427        0        
C3        C        0.8125        0.9814809999999999        0.18952971428571427        0        
C3        C        0.875        0.9814809999999999        0.18952971428571427        0        
C3        C        0.9375        0.9814809999999999        0.18952971428571427        0        
C4        C        0.03125        0.925925        0.18952971428571427        0        
C4        C        0.09375        0.925925        0.18952971428571427        0        
C4        C        0.15625        0.925925        0.18952971428571427        0        
C4        C        0.21875        0.925925        0.18952971428571427        0        
C4        C        0.28125        0.925925        0.18952971428571427        0        
C4        C        0.34375        0.925925        0.18952971428571427        0        
C4        C        0.40625        0.925925        0.18952971428571427        0        
C4        C        0.46875        0.925925        0.18952971428571427        0        
C4        C        0.53125        0.925925        0.18952971428571427        0        
C4        C        0.59375        0.925925        0.18952971428571427        0        
C4        C        0.65625        0.925925        0.18952971428571427        0        
C4        C        0.71875        0.925925        0.18952971428571427        0        
C4        C        0.78125        0.925925        0.18952971428571427        0        
C4        C        0.84375        0.925925        0.18952971428571427        0        
C4        C        0.9062500000000001        0.925925        0.18952971428571427        0        
C4        C        0.9687500000000001        0.925925        0.18952971428571427        0        
C_FG        C        0.0        0.018519        0.4629987142857143        0.08        
C2        C        0.03125        0.074075        0.4629987142857143        0        
C3        C        0.0        0.092592        0.4629987142857143        0        
C4        C        0.03125        0.037037        0.4629987142857143        0        
C_FG        C        0.0        0.12963        0.4629987142857143        0.08        
C2        C        0.03125        0.185185        0.4629987142857143        0        
C3        C        0.0        0.203703        0.4629987142857143        0        
C4        C        0.03125        0.148148        0.4629987142857143        0        
C_FG        C        0.0        0.24074099999999998        0.4629987142857143        0.08        
C2        C        0.03125        0.296297        0.4629987142857143        0        
C3        C        0.0        0.314815        0.4629987142857143        0        
C4        C        0.03125        0.259259        0.4629987142857143        0        
C_FG        C        0.0        0.351852        0.4629987142857143        0.08        
C2        C        0.03125        0.407408        0.4629987142857143        0        
C3        C        0.0        0.42592500000000005        0.4629987142857143        0        
C4        C        0.03125        0.37037        0.4629987142857143        0        
C_FG        C        0.0        0.46296300000000007        0.4629987142857143        0.08        
C2        C        0.03125        0.518519        0.4629987142857143        0        
C3        C        0.0        0.537037        0.4629987142857143        0        
C4        C        0.03125        0.481481        0.4629987142857143        0        
C_FG        C        0.0        0.574075        0.4629987142857143        0.08        
C2        C        0.03125        0.62963        0.4629987142857143        0        
C3        C        0.0        0.648148        0.4629987142857143        0        
C4        C        0.03125        0.592592        0.4629987142857143        0        
C1        C        0.0625        0.018519        0.4629987142857143        0        
C2        C        0.09375        0.074075        0.4629987142857143        0        
C3        C        0.0625        0.092592        0.4629987142857143        0        
C4        C        0.09375        0.037037        0.4629987142857143        0        
C1        C        0.0625        0.12963        0.4629987142857143        0        
C2        C        0.09375        0.185185        0.4629987142857143        0        
C3        C        0.0625        0.203703        0.4629987142857143        0        
C4        C        0.09375        0.148148        0.4629987142857143        0        
C1        C        0.0625        0.24074099999999998        0.4629987142857143        0        
C2        C        0.09375        0.296297        0.4629987142857143        0        
C3        C        0.0625        0.314815        0.4629987142857143        0        
C4        C        0.09375        0.259259        0.4629987142857143        0        
C1        C        0.0625        0.351852        0.4629987142857143        0        
C2        C        0.09375        0.407408        0.4629987142857143        0        
C3        C        0.0625        0.42592500000000005        0.4629987142857143        0        
C4        C        0.09375        0.37037        0.4629987142857143        0        
C1        C        0.0625        0.46296300000000007        0.4629987142857143        0        
C2        C        0.09375        0.518519        0.4629987142857143        0        
C3        C        0.0625        0.537037        0.4629987142857143        0        
C4        C        0.09375        0.481481        0.4629987142857143        0        
C1        C        0.0625        0.574075        0.4629987142857143        0        
C2        C        0.09375        0.62963        0.4629987142857143        0        
C3        C        0.0625        0.648148        0.4629987142857143        0        
C4        C        0.09375        0.592592        0.4629987142857143        0        
C1        C        0.125        0.018519        0.4629987142857143        0        
C2        C        0.15625        0.074075        0.4629987142857143        0        
C3        C        0.125        0.092592        0.4629987142857143        0        
C4        C        0.15625        0.037037        0.4629987142857143        0        
C1        C        0.125        0.12963        0.4629987142857143        0        
C2        C        0.15625        0.185185        0.4629987142857143        0        
C3        C        0.125        0.203703        0.4629987142857143        0        
C4        C        0.15625        0.148148        0.4629987142857143        0        
C1        C        0.125        0.24074099999999998        0.4629987142857143        0        
C2        C        0.15625        0.296297        0.4629987142857143        0        
C3        C        0.125        0.314815        0.4629987142857143        0        
C4        C        0.15625        0.259259        0.4629987142857143        0        
C1        C        0.125        0.351852        0.4629987142857143        0        
C2        C        0.15625        0.407408        0.4629987142857143        0        
C3        C        0.125        0.42592500000000005        0.4629987142857143        0        
C4        C        0.15625        0.37037        0.4629987142857143        0        
C1        C        0.125        0.46296300000000007        0.4629987142857143        0        
C2        C        0.15625        0.518519        0.4629987142857143        0        
C3        C        0.125        0.537037        0.4629987142857143        0        
C4        C        0.15625        0.481481        0.4629987142857143        0        
C1        C        0.125        0.574075        0.4629987142857143        0        
C2        C        0.15625        0.62963        0.4629987142857143        0        
C3        C        0.125        0.648148        0.4629987142857143        0        
C4        C        0.15625        0.592592        0.4629987142857143        0        
C1        C        0.1875        0.018519        0.4629987142857143        0        
C2        C        0.21875        0.074075        0.4629987142857143        0        
C3        C        0.1875        0.092592        0.4629987142857143        0        
C4        C        0.21875        0.037037        0.4629987142857143        0        
C1        C        0.1875        0.12963        0.4629987142857143        0        
C2        C        0.21875        0.185185        0.4629987142857143        0        
C3        C        0.1875        0.203703        0.4629987142857143        0        
C4        C        0.21875        0.148148        0.4629987142857143        0        
C1        C        0.1875        0.24074099999999998        0.4629987142857143        0        
C2        C        0.21875        0.296297        0.4629987142857143        0        
C3        C        0.1875        0.314815        0.4629987142857143        0        
C4        C        0.21875        0.259259        0.4629987142857143        0        
C1        C        0.1875        0.351852        0.4629987142857143        0        
C2        C        0.21875        0.407408        0.4629987142857143        0        
C3        C        0.1875        0.42592500000000005        0.4629987142857143        0        
C4        C        0.21875        0.37037        0.4629987142857143        0        
C1        C        0.1875        0.46296300000000007        0.4629987142857143        0        
C2        C        0.21875        0.518519        0.4629987142857143        0        
C3        C        0.1875        0.537037        0.4629987142857143        0        
C4        C        0.21875        0.481481        0.4629987142857143        0        
C1        C        0.1875        0.574075        0.4629987142857143        0        
C2        C        0.21875        0.62963        0.4629987142857143        0        
C3        C        0.1875        0.648148        0.4629987142857143        0        
C4        C        0.21875        0.592592        0.4629987142857143        0        
C_FG        C        0.25        0.018519        0.4629987142857143        0.08        
C2        C        0.28125        0.074075        0.4629987142857143        0        
C3        C        0.25        0.092592        0.4629987142857143        0        
C4        C        0.28125        0.037037        0.4629987142857143        0        
C_FG        C        0.25        0.12963        0.4629987142857143        0.08        
C2        C        0.28125        0.185185        0.4629987142857143        0        
C3        C        0.25        0.203703        0.4629987142857143        0        
C4        C        0.28125        0.148148        0.4629987142857143        0        
C_FG        C        0.25        0.24074099999999998        0.4629987142857143        0.08        
C2        C        0.28125        0.296297        0.4629987142857143        0        
C3        C        0.25        0.314815        0.4629987142857143        0        
C4        C        0.28125        0.259259        0.4629987142857143        0        
C_FG        C        0.25        0.351852        0.4629987142857143        0.08        
C2        C        0.28125        0.407408        0.4629987142857143        0        
C3        C        0.25        0.42592500000000005        0.4629987142857143        0        
C4        C        0.28125        0.37037        0.4629987142857143        0        
C_FG        C        0.25        0.46296300000000007        0.4629987142857143        0.08        
C2        C        0.28125        0.518519        0.4629987142857143        0        
C3        C        0.25        0.537037        0.4629987142857143        0        
C4        C        0.28125        0.481481        0.4629987142857143        0        
C_FG        C        0.25        0.574075        0.4629987142857143        0.08        
C2        C        0.28125        0.62963        0.4629987142857143        0        
C3        C        0.25        0.648148        0.4629987142857143        0        
C4        C        0.28125        0.592592        0.4629987142857143        0        
C1        C        0.3125        0.018519        0.4629987142857143        0        
C2        C        0.34375        0.074075        0.4629987142857143        0        
C3        C        0.3125        0.092592        0.4629987142857143        0        
C4        C        0.34375        0.037037        0.4629987142857143        0        
C1        C        0.3125        0.12963        0.4629987142857143        0        
C2        C        0.34375        0.185185        0.4629987142857143        0        
C3        C        0.3125        0.203703        0.4629987142857143        0        
C4        C        0.34375        0.148148        0.4629987142857143        0        
C1        C        0.3125        0.24074099999999998        0.4629987142857143        0        
C2        C        0.34375        0.296297        0.4629987142857143        0        
C3        C        0.3125        0.314815        0.4629987142857143        0        
C4        C        0.34375        0.259259        0.4629987142857143        0        
C1        C        0.3125        0.351852        0.4629987142857143        0        
C2        C        0.34375        0.407408        0.4629987142857143        0        
C3        C        0.3125        0.42592500000000005        0.4629987142857143        0        
C4        C        0.34375        0.37037        0.4629987142857143        0        
C1        C        0.3125        0.46296300000000007        0.4629987142857143        0        
C2        C        0.34375        0.518519        0.4629987142857143        0        
C3        C        0.3125        0.537037        0.4629987142857143        0        
C4        C        0.34375        0.481481        0.4629987142857143        0        
C1        C        0.3125        0.574075        0.4629987142857143        0        
C2        C        0.34375        0.62963        0.4629987142857143        0        
C3        C        0.3125        0.648148        0.4629987142857143        0        
C4        C        0.34375        0.592592        0.4629987142857143        0        
C1        C        0.375        0.018519        0.4629987142857143        0        
C2        C        0.40625        0.074075        0.4629987142857143        0        
C3        C        0.375        0.092592        0.4629987142857143        0        
C4        C        0.40625        0.037037        0.4629987142857143        0        
C1        C        0.375        0.12963        0.4629987142857143        0        
C2        C        0.40625        0.185185        0.4629987142857143        0        
C3        C        0.375        0.203703        0.4629987142857143        0        
C4        C        0.40625        0.148148        0.4629987142857143        0        
C1        C        0.375        0.24074099999999998        0.4629987142857143        0        
C2        C        0.40625        0.296297        0.4629987142857143        0        
C3        C        0.375        0.314815        0.4629987142857143        0        
C4        C        0.40625        0.259259        0.4629987142857143        0        
C1        C        0.375        0.351852        0.4629987142857143        0        
C2        C        0.40625        0.407408        0.4629987142857143        0        
C3        C        0.375        0.42592500000000005        0.4629987142857143        0        
C4        C        0.40625        0.37037        0.4629987142857143        0        
C1        C        0.375        0.46296300000000007        0.4629987142857143        0        
C2        C        0.40625        0.518519        0.4629987142857143        0        
C3        C        0.375        0.537037        0.4629987142857143        0        
C4        C        0.40625        0.481481        0.4629987142857143        0        
C1        C        0.375        0.574075        0.4629987142857143        0        
C2        C        0.40625        0.62963        0.4629987142857143        0        
C3        C        0.375        0.648148        0.4629987142857143        0        
C4        C        0.40625        0.592592        0.4629987142857143        0        
C1        C        0.4375        0.018519        0.4629987142857143        0        
C2        C        0.46875        0.074075        0.4629987142857143        0        
C3        C        0.4375        0.092592        0.4629987142857143        0        
C4        C        0.46875        0.037037        0.4629987142857143        0        
C1        C        0.4375        0.12963        0.4629987142857143        0        
C2        C        0.46875        0.185185        0.4629987142857143        0        
C3        C        0.4375        0.203703        0.4629987142857143        0        
C4        C        0.46875        0.148148        0.4629987142857143        0        
C1        C        0.4375        0.24074099999999998        0.4629987142857143        0        
C2        C        0.46875        0.296297        0.4629987142857143        0        
C3        C        0.4375        0.314815        0.4629987142857143        0        
C4        C        0.46875        0.259259        0.4629987142857143        0        
C1        C        0.4375        0.351852        0.4629987142857143        0        
C2        C        0.46875        0.407408        0.4629987142857143        0        
C3        C        0.4375        0.42592500000000005        0.4629987142857143        0        
C4        C        0.46875        0.37037        0.4629987142857143        0        
C1        C        0.4375        0.46296300000000007        0.4629987142857143        0        
C2        C        0.46875        0.518519        0.4629987142857143        0        
C3        C        0.4375        0.537037        0.4629987142857143        0        
C4        C        0.46875        0.481481        0.4629987142857143        0        
C1        C        0.4375        0.574075        0.4629987142857143        0        
C2        C        0.46875        0.62963        0.4629987142857143        0        
C3        C        0.4375        0.648148        0.4629987142857143        0        
C4        C        0.46875        0.592592        0.4629987142857143        0        
C_FG        C        0.5        0.018519        0.4629987142857143        0.08        
C2        C        0.53125        0.074075        0.4629987142857143        0        
C3        C        0.5        0.092592        0.4629987142857143        0        
C4        C        0.53125        0.037037        0.4629987142857143        0        
C_FG        C        0.5        0.12963        0.4629987142857143        0.08        
C2        C        0.53125        0.185185        0.4629987142857143        0        
C3        C        0.5        0.203703        0.4629987142857143        0        
C4        C        0.53125        0.148148        0.4629987142857143        0        
C_FG        C        0.5        0.24074099999999998        0.4629987142857143        0.08        
C2        C        0.53125        0.296297        0.4629987142857143        0        
C3        C        0.5        0.314815        0.4629987142857143        0        
C4        C        0.53125        0.259259        0.4629987142857143        0        
C_FG        C        0.5        0.351852        0.4629987142857143        0.08        
C2        C        0.53125        0.407408        0.4629987142857143        0        
C3        C        0.5        0.42592500000000005        0.4629987142857143        0        
C4        C        0.53125        0.37037        0.4629987142857143        0        
C_FG        C        0.5        0.46296300000000007        0.4629987142857143        0.08        
C2        C        0.53125        0.518519        0.4629987142857143        0        
C3        C        0.5        0.537037        0.4629987142857143        0        
C4        C        0.53125        0.481481        0.4629987142857143        0        
C_FG        C        0.5        0.574075        0.4629987142857143        0.08        
C2        C        0.53125        0.62963        0.4629987142857143        0        
C3        C        0.5        0.648148        0.4629987142857143        0        
C4        C        0.53125        0.592592        0.4629987142857143        0        
C1        C        0.5625        0.018519        0.4629987142857143        0        
C2        C        0.59375        0.074075        0.4629987142857143        0        
C3        C        0.5625        0.092592        0.4629987142857143        0        
C4        C        0.59375        0.037037        0.4629987142857143        0        
C1        C        0.5625        0.12963        0.4629987142857143        0        
C2        C        0.59375        0.185185        0.4629987142857143        0        
C3        C        0.5625        0.203703        0.4629987142857143        0        
C4        C        0.59375        0.148148        0.4629987142857143        0        
C1        C        0.5625        0.24074099999999998        0.4629987142857143        0        
C2        C        0.59375        0.296297        0.4629987142857143        0        
C3        C        0.5625        0.314815        0.4629987142857143        0        
C4        C        0.59375        0.259259        0.4629987142857143        0        
C1        C        0.5625        0.351852        0.4629987142857143        0        
C2        C        0.59375        0.407408        0.4629987142857143        0        
C3        C        0.5625        0.42592500000000005        0.4629987142857143        0        
C4        C        0.59375        0.37037        0.4629987142857143        0        
C1        C        0.5625        0.46296300000000007        0.4629987142857143        0        
C2        C        0.59375        0.518519        0.4629987142857143        0        
C3        C        0.5625        0.537037        0.4629987142857143        0        
C4        C        0.59375        0.481481        0.4629987142857143        0        
C1        C        0.5625        0.574075        0.4629987142857143        0        
C2        C        0.59375        0.62963        0.4629987142857143        0        
C3        C        0.5625        0.648148        0.4629987142857143        0        
C4        C        0.59375        0.592592        0.4629987142857143        0        
C1        C        0.625        0.018519        0.4629987142857143        0        
C2        C        0.65625        0.074075        0.4629987142857143        0        
C3        C        0.625        0.092592        0.4629987142857143        0        
C4        C        0.65625        0.037037        0.4629987142857143        0        
C1        C        0.625        0.12963        0.4629987142857143        0        
C2        C        0.65625        0.185185        0.4629987142857143        0        
C3        C        0.625        0.203703        0.4629987142857143        0        
C4        C        0.65625        0.148148        0.4629987142857143        0        
C1        C        0.625        0.24074099999999998        0.4629987142857143        0        
C2        C        0.65625        0.296297        0.4629987142857143        0        
C3        C        0.625        0.314815        0.4629987142857143        0        
C4        C        0.65625        0.259259        0.4629987142857143        0        
C1        C        0.625        0.351852        0.4629987142857143        0        
C2        C        0.65625        0.407408        0.4629987142857143        0        
C3        C        0.625        0.42592500000000005        0.4629987142857143        0        
C4        C        0.65625        0.37037        0.4629987142857143        0        
C1        C        0.625        0.46296300000000007        0.4629987142857143        0        
C2        C        0.65625        0.518519        0.4629987142857143        0        
C3        C        0.625        0.537037        0.4629987142857143        0        
C4        C        0.65625        0.481481        0.4629987142857143        0        
C1        C        0.625        0.574075        0.4629987142857143        0        
C2        C        0.65625        0.62963        0.4629987142857143        0        
C3        C        0.625        0.648148        0.4629987142857143        0        
C4        C        0.65625        0.592592        0.4629987142857143        0        
C1        C        0.6875        0.018519        0.4629987142857143        0        
C2        C        0.71875        0.074075        0.4629987142857143        0        
C3        C        0.6875        0.092592        0.4629987142857143        0        
C4        C        0.71875        0.037037        0.4629987142857143        0        
C1        C        0.6875        0.12963        0.4629987142857143        0        
C2        C        0.71875        0.185185        0.4629987142857143        0        
C3        C        0.6875        0.203703        0.4629987142857143        0        
C4        C        0.71875        0.148148        0.4629987142857143        0        
C1        C        0.6875        0.24074099999999998        0.4629987142857143        0        
C2        C        0.71875        0.296297        0.4629987142857143        0        
C3        C        0.6875        0.314815        0.4629987142857143        0        
C4        C        0.71875        0.259259        0.4629987142857143        0        
C1        C        0.6875        0.351852        0.4629987142857143        0        
C2        C        0.71875        0.407408        0.4629987142857143        0        
C3        C        0.6875        0.42592500000000005        0.4629987142857143        0        
C4        C        0.71875        0.37037        0.4629987142857143        0        
C1        C        0.6875        0.46296300000000007        0.4629987142857143        0        
C2        C        0.71875        0.518519        0.4629987142857143        0        
C3        C        0.6875        0.537037        0.4629987142857143        0        
C4        C        0.71875        0.481481        0.4629987142857143        0        
C1        C        0.6875        0.574075        0.4629987142857143        0        
C2        C        0.71875        0.62963        0.4629987142857143        0        
C3        C        0.6875        0.648148        0.4629987142857143        0        
C4        C        0.71875        0.592592        0.4629987142857143        0        
C_FG        C        0.75        0.018519        0.4629987142857143        0.08        
C2        C        0.78125        0.074075        0.4629987142857143        0        
C3        C        0.75        0.092592        0.4629987142857143        0        
C4        C        0.78125        0.037037        0.4629987142857143        0        
C_FG        C        0.75        0.12963        0.4629987142857143        0.08        
C2        C        0.78125        0.185185        0.4629987142857143        0        
C3        C        0.75        0.203703        0.4629987142857143        0        
C4        C        0.78125        0.148148        0.4629987142857143        0        
C_FG        C        0.75        0.24074099999999998        0.4629987142857143        0.08        
C2        C        0.78125        0.296297        0.4629987142857143        0        
C3        C        0.75        0.314815        0.4629987142857143        0        
C4        C        0.78125        0.259259        0.4629987142857143        0        
C_FG        C        0.75        0.351852        0.4629987142857143        0.08        
C2        C        0.78125        0.407408        0.4629987142857143        0        
C3        C        0.75        0.42592500000000005        0.4629987142857143        0        
C4        C        0.78125        0.37037        0.4629987142857143        0        
C_FG        C        0.75        0.46296300000000007        0.4629987142857143        0.08        
C2        C        0.78125        0.518519        0.4629987142857143        0        
C3        C        0.75        0.537037        0.4629987142857143        0        
C4        C        0.78125        0.481481        0.4629987142857143        0        
C_FG        C        0.75        0.574075        0.4629987142857143        0.08        
C2        C        0.78125        0.62963        0.4629987142857143        0        
C3        C        0.75        0.648148        0.4629987142857143        0        
C4        C        0.78125        0.592592        0.4629987142857143        0        
C1        C        0.8125        0.018519        0.4629987142857143        0        
C2        C        0.84375        0.074075        0.4629987142857143        0        
C3        C        0.8125        0.092592        0.4629987142857143        0        
C4        C        0.84375        0.037037        0.4629987142857143        0        
C1        C        0.8125        0.12963        0.4629987142857143        0        
C2        C        0.84375        0.185185        0.4629987142857143        0        
C3        C        0.8125        0.203703        0.4629987142857143        0        
C4        C        0.84375        0.148148        0.4629987142857143        0        
C1        C        0.8125        0.24074099999999998        0.4629987142857143        0        
C2        C        0.84375        0.296297        0.4629987142857143        0        
C3        C        0.8125        0.314815        0.4629987142857143        0        
C4        C        0.84375        0.259259        0.4629987142857143        0        
C1        C        0.8125        0.351852        0.4629987142857143        0        
C2        C        0.84375        0.407408        0.4629987142857143        0        
C3        C        0.8125        0.42592500000000005        0.4629987142857143        0        
C4        C        0.84375        0.37037        0.4629987142857143        0        
C1        C        0.8125        0.46296300000000007        0.4629987142857143        0        
C2        C        0.84375        0.518519        0.4629987142857143        0        
C3        C        0.8125        0.537037        0.4629987142857143        0        
C4        C        0.84375        0.481481        0.4629987142857143        0        
C1        C        0.8125        0.574075        0.4629987142857143        0        
C2        C        0.84375        0.62963        0.4629987142857143        0        
C3        C        0.8125        0.648148        0.4629987142857143        0        
C4        C        0.84375        0.592592        0.4629987142857143        0        
C1        C        0.875        0.018519        0.4629987142857143        0        
C2        C        0.9062500000000001        0.074075        0.4629987142857143        0        
C3        C        0.875        0.092592        0.4629987142857143        0        
C4        C        0.9062500000000001        0.037037        0.4629987142857143        0        
C1        C        0.875        0.12963        0.4629987142857143        0        
C2        C        0.9062500000000001        0.185185        0.4629987142857143        0        
C3        C        0.875        0.203703        0.4629987142857143        0        
C4        C        0.9062500000000001        0.148148        0.4629987142857143        0        
C1        C        0.875        0.24074099999999998        0.4629987142857143        0        
C2        C        0.9062500000000001        0.296297        0.4629987142857143        0        
C3        C        0.875        0.314815        0.4629987142857143        0        
C4        C        0.9062500000000001        0.259259        0.4629987142857143        0        
C1        C        0.875        0.351852        0.4629987142857143        0        
C2        C        0.9062500000000001        0.407408        0.4629987142857143        0        
C3        C        0.875        0.42592500000000005        0.4629987142857143        0        
C4        C        0.9062500000000001        0.37037        0.4629987142857143        0        
C1        C        0.875        0.46296300000000007        0.4629987142857143        0        
C2        C        0.9062500000000001        0.518519        0.4629987142857143        0        
C3        C        0.875        0.537037        0.4629987142857143        0        
C4        C        0.9062500000000001        0.481481        0.4629987142857143        0        
C1        C        0.875        0.574075        0.4629987142857143        0        
C2        C        0.9062500000000001        0.62963        0.4629987142857143        0        
C3        C        0.875        0.648148        0.4629987142857143        0        
C4        C        0.9062500000000001        0.592592        0.4629987142857143        0        
C1        C        0.9375        0.018519        0.4629987142857143        0        
C2        C        0.9687500000000001        0.074075        0.4629987142857143        0        
C3        C        0.9375        0.092592        0.4629987142857143        0        
C4        C        0.9687500000000001        0.037037        0.4629987142857143        0        
C1        C        0.9375        0.12963        0.4629987142857143        0        
C2        C        0.9687500000000001        0.185185        0.4629987142857143        0        
C3        C        0.9375        0.203703        0.4629987142857143        0        
C4        C        0.9687500000000001        0.148148        0.4629987142857143        0        
C1        C        0.9375        0.24074099999999998        0.4629987142857143        0        
C2        C        0.9687500000000001        0.296297        0.4629987142857143        0        
C3        C        0.9375        0.314815        0.4629987142857143        0        
C4        C        0.9687500000000001        0.259259        0.4629987142857143        0        
C1        C        0.9375        0.351852        0.4629987142857143        0        
C2        C        0.9687500000000001        0.407408        0.4629987142857143        0        
C3        C        0.9375        0.42592500000000005        0.4629987142857143        0        
C4        C        0.9687500000000001        0.37037        0.4629987142857143        0        
C1        C        0.9375        0.46296300000000007        0.4629987142857143        0        
C2        C        0.9687500000000001        0.518519        0.4629987142857143        0        
C3        C        0.9375        0.537037        0.4629987142857143        0        
C4        C        0.9687500000000001        0.481481        0.4629987142857143        0        
C1        C        0.9375        0.574075        0.4629987142857143        0        
C2        C        0.9687500000000001        0.62963        0.4629987142857143        0        
C3        C        0.9375        0.648148        0.4629987142857143        0        
C4        C        0.9687500000000001        0.592592        0.4629987142857143        0        
C_FG        C        0.0        0.685186        0.4629987142857143        0.08        
C1        C        0.0625        0.685186        0.4629987142857143        0        
C1        C        0.125        0.685186        0.4629987142857143        0        
C1        C        0.1875        0.685186        0.4629987142857143        0        
C_FG        C        0.25        0.685186        0.4629987142857143        0.08        
C1        C        0.3125        0.685186        0.4629987142857143        0        
C1        C        0.375        0.685186        0.4629987142857143        0        
C1        C        0.4375        0.685186        0.4629987142857143        0        
C_FG        C        0.5        0.685186        0.4629987142857143        0.08        
C1        C        0.5625        0.685186        0.4629987142857143        0        
C1        C        0.625        0.685186        0.4629987142857143        0        
C1        C        0.6875        0.685186        0.4629987142857143        0        
C_FG        C        0.75        0.685186        0.4629987142857143        0.08        
C1        C        0.8125        0.685186        0.4629987142857143        0        
C1        C        0.875        0.685186        0.4629987142857143        0        
C1        C        0.9375        0.685186        0.4629987142857143        0        
C2        C        0.03125        0.740741        0.4629987142857143        0        
C2        C        0.09375        0.740741        0.4629987142857143        0        
C2        C        0.15625        0.740741        0.4629987142857143        0        
C2        C        0.21875        0.740741        0.4629987142857143        0        
C2        C        0.28125        0.740741        0.4629987142857143        0        
C2        C        0.34375        0.740741        0.4629987142857143        0        
C2        C        0.40625        0.740741        0.4629987142857143        0        
C2        C        0.46875        0.740741        0.4629987142857143        0        
C2        C        0.53125        0.740741        0.4629987142857143        0        
C2        C        0.59375        0.740741        0.4629987142857143        0        
C2        C        0.65625        0.740741        0.4629987142857143        0        
C2        C        0.71875        0.740741        0.4629987142857143        0        
C2        C        0.78125        0.740741        0.4629987142857143        0        
C2        C        0.84375        0.740741        0.4629987142857143        0        
C2        C        0.9062500000000001        0.740741        0.4629987142857143        0        
C2        C        0.9687500000000001        0.740741        0.4629987142857143        0        
C3        C        0.0        0.759259        0.4629987142857143        0        
C3        C        0.0625        0.759259        0.4629987142857143        0        
C3        C        0.125        0.759259        0.4629987142857143        0        
C3        C        0.1875        0.759259        0.4629987142857143        0        
C3        C        0.25        0.759259        0.4629987142857143        0        
C3        C        0.3125        0.759259        0.4629987142857143        0        
C3        C        0.375        0.759259        0.4629987142857143        0        
C3        C        0.4375        0.759259        0.4629987142857143        0        
C3        C        0.5        0.759259        0.4629987142857143        0        
C3        C        0.5625        0.759259        0.4629987142857143        0        
C3        C        0.625        0.759259        0.4629987142857143        0        
C3        C        0.6875        0.759259        0.4629987142857143        0        
C3        C        0.75        0.759259        0.4629987142857143        0        
C3        C        0.8125        0.759259        0.4629987142857143        0        
C3        C        0.875        0.759259        0.4629987142857143        0        
C3        C        0.9375        0.759259        0.4629987142857143        0        
C4        C        0.03125        0.703703        0.4629987142857143        0        
C4        C        0.09375        0.703703        0.4629987142857143        0        
C4        C        0.15625        0.703703        0.4629987142857143        0        
C4        C        0.21875        0.703703        0.4629987142857143        0        
C4        C        0.28125        0.703703        0.4629987142857143        0        
C4        C        0.34375        0.703703        0.4629987142857143        0        
C4        C        0.40625        0.703703        0.4629987142857143        0        
C4        C        0.46875        0.703703        0.4629987142857143        0        
C4        C        0.53125        0.703703        0.4629987142857143        0        
C4        C        0.59375        0.703703        0.4629987142857143        0        
C4        C        0.65625        0.703703        0.4629987142857143        0        
C4        C        0.71875        0.703703        0.4629987142857143        0        
C4        C        0.78125        0.703703        0.4629987142857143        0        
C4        C        0.84375        0.703703        0.4629987142857143        0        
C4        C        0.9062500000000001        0.703703        0.4629987142857143        0        
C4        C        0.9687500000000001        0.703703        0.4629987142857143        0        
C_FG        C        0.0        0.796297        0.4629987142857143        0.08        
C1        C        0.0625        0.796297        0.4629987142857143        0        
C1        C        0.125        0.796297        0.4629987142857143        0        
C1        C        0.1875        0.796297        0.4629987142857143        0        
C_FG        C        0.25        0.796297        0.4629987142857143        0.08        
C1        C        0.3125        0.796297        0.4629987142857143        0        
C1        C        0.375        0.796297        0.4629987142857143        0        
C1        C        0.4375        0.796297        0.4629987142857143        0        
C_FG        C        0.5        0.796297        0.4629987142857143        0.08        
C1        C        0.5625        0.796297        0.4629987142857143        0        
C1        C        0.625        0.796297        0.4629987142857143        0        
C1        C        0.6875        0.796297        0.4629987142857143        0        
C_FG        C        0.75        0.796297        0.4629987142857143        0.08        
C1        C        0.8125        0.796297        0.4629987142857143        0        
C1        C        0.875        0.796297        0.4629987142857143        0        
C1        C        0.9375        0.796297        0.4629987142857143        0        
C2        C        0.03125        0.851852        0.4629987142857143        0        
C2        C        0.09375        0.851852        0.4629987142857143        0        
C2        C        0.15625        0.851852        0.4629987142857143        0        
C2        C        0.21875        0.851852        0.4629987142857143        0        
C2        C        0.28125        0.851852        0.4629987142857143        0        
C2        C        0.34375        0.851852        0.4629987142857143        0        
C2        C        0.40625        0.851852        0.4629987142857143        0        
C2        C        0.46875        0.851852        0.4629987142857143        0        
C2        C        0.53125        0.851852        0.4629987142857143        0        
C2        C        0.59375        0.851852        0.4629987142857143        0        
C2        C        0.65625        0.851852        0.4629987142857143        0        
C2        C        0.71875        0.851852        0.4629987142857143        0        
C2        C        0.78125        0.851852        0.4629987142857143        0        
C2        C        0.84375        0.851852        0.4629987142857143        0        
C2        C        0.9062500000000001        0.851852        0.4629987142857143        0        
C2        C        0.9687500000000001        0.851852        0.4629987142857143        0        
C3        C        0.0        0.87037        0.4629987142857143        0        
C3        C        0.0625        0.87037        0.4629987142857143        0        
C3        C        0.125        0.87037        0.4629987142857143        0        
C3        C        0.1875        0.87037        0.4629987142857143        0        
C3        C        0.25        0.87037        0.4629987142857143        0        
C3        C        0.3125        0.87037        0.4629987142857143        0        
C3        C        0.375        0.87037        0.4629987142857143        0        
C3        C        0.4375        0.87037        0.4629987142857143        0        
C3        C        0.5        0.87037        0.4629987142857143        0        
C3        C        0.5625        0.87037        0.4629987142857143        0        
C3        C        0.625        0.87037        0.4629987142857143        0        
C3        C        0.6875        0.87037        0.4629987142857143        0        
C3        C        0.75        0.87037        0.4629987142857143        0        
C3        C        0.8125        0.87037        0.4629987142857143        0        
C3        C        0.875        0.87037        0.4629987142857143        0        
C3        C        0.9375        0.87037        0.4629987142857143        0        
C4        C        0.03125        0.814814        0.4629987142857143        0        
C4        C        0.09375        0.814814        0.4629987142857143        0        
C4        C        0.15625        0.814814        0.4629987142857143        0        
C4        C        0.21875        0.814814        0.4629987142857143        0        
C4        C        0.28125        0.814814        0.4629987142857143        0        
C4        C        0.34375        0.814814        0.4629987142857143        0        
C4        C        0.40625        0.814814        0.4629987142857143        0        
C4        C        0.46875        0.814814        0.4629987142857143        0        
C4        C        0.53125        0.814814        0.4629987142857143        0        
C4        C        0.59375        0.814814        0.4629987142857143        0        
C4        C        0.65625        0.814814        0.4629987142857143        0        
C4        C        0.71875        0.814814        0.4629987142857143        0        
C4        C        0.78125        0.814814        0.4629987142857143        0        
C4        C        0.84375        0.814814        0.4629987142857143        0        
C4        C        0.9062500000000001        0.814814        0.4629987142857143        0        
C4        C        0.9687500000000001        0.814814        0.4629987142857143        0        
C_FG        C        0.0        0.907408        0.4629987142857143        0.08        
C1        C        0.0625        0.907408        0.4629987142857143        0        
C1        C        0.125        0.907408        0.4629987142857143        0        
C1        C        0.1875        0.907408        0.4629987142857143        0        
C_FG        C        0.25        0.907408        0.4629987142857143        0.08        
C1        C        0.3125        0.907408        0.4629987142857143        0        
C1        C        0.375        0.907408        0.4629987142857143        0        
C1        C        0.4375        0.907408        0.4629987142857143        0        
C_FG        C        0.5        0.907408        0.4629987142857143        0.08        
C1        C        0.5625        0.907408        0.4629987142857143        0        
C1        C        0.625        0.907408        0.4629987142857143        0        
C1        C        0.6875        0.907408        0.4629987142857143        0        
C_FG        C        0.75        0.907408        0.4629987142857143        0.08        
C1        C        0.8125        0.907408        0.4629987142857143        0        
C1        C        0.875        0.907408        0.4629987142857143        0        
C1        C        0.9375        0.907408        0.4629987142857143        0        
C2        C        0.03125        0.962963        0.4629987142857143        0        
C2        C        0.09375        0.962963        0.4629987142857143        0        
C2        C        0.15625        0.962963        0.4629987142857143        0        
C2        C        0.21875        0.962963        0.4629987142857143        0        
C2        C        0.28125        0.962963        0.4629987142857143        0        
C2        C        0.34375        0.962963        0.4629987142857143        0        
C2        C        0.40625        0.962963        0.4629987142857143        0        
C2        C        0.46875        0.962963        0.4629987142857143        0        
C2        C        0.53125        0.962963        0.4629987142857143        0        
C2        C        0.59375        0.962963        0.4629987142857143        0        
C2        C        0.65625        0.962963        0.4629987142857143        0        
C2        C        0.71875        0.962963        0.4629987142857143        0        
C2        C        0.78125        0.962963        0.4629987142857143        0        
C2        C        0.84375        0.962963        0.4629987142857143        0        
C2        C        0.9062500000000001        0.962963        0.4629987142857143        0        
C2        C        0.9687500000000001        0.962963        0.4629987142857143        0        
C3        C        0.0        0.9814809999999999        0.4629987142857143        0        
C3        C        0.0625        0.9814809999999999        0.4629987142857143        0        
C3        C        0.125        0.9814809999999999        0.4629987142857143        0        
C3        C        0.1875        0.9814809999999999        0.4629987142857143        0        
C3        C        0.25        0.9814809999999999        0.4629987142857143        0        
C3        C        0.3125        0.9814809999999999        0.4629987142857143        0        
C3        C        0.375        0.9814809999999999        0.4629987142857143        0        
C3        C        0.4375        0.9814809999999999        0.4629987142857143        0        
C3        C        0.5        0.9814809999999999        0.4629987142857143        0        
C3        C        0.5625        0.9814809999999999        0.4629987142857143        0        
C3        C        0.625        0.9814809999999999        0.4629987142857143        0        
C3        C        0.6875        0.9814809999999999        0.4629987142857143        0        
C3        C        0.75        0.9814809999999999        0.4629987142857143        0        
C3        C        0.8125        0.9814809999999999        0.4629987142857143        0        
C3        C        0.875        0.9814809999999999        0.4629987142857143        0        
C3        C        0.9375        0.9814809999999999        0.4629987142857143        0        
C4        C        0.03125        0.925925        0.4629987142857143        0        
C4        C        0.09375        0.925925        0.4629987142857143        0        
C4        C        0.15625        0.925925        0.4629987142857143        0        
C4        C        0.21875        0.925925        0.4629987142857143        0        
C4        C        0.28125        0.925925        0.4629987142857143        0        
C4        C        0.34375        0.925925        0.4629987142857143        0        
C4        C        0.40625        0.925925        0.4629987142857143        0        
C4        C        0.46875        0.925925        0.4629987142857143        0        
C4        C        0.53125        0.925925        0.4629987142857143        0        
C4        C        0.59375        0.925925        0.4629987142857143        0        
C4        C        0.65625        0.925925        0.4629987142857143        0        
C4        C        0.71875        0.925925        0.4629987142857143        0        
C4        C        0.78125        0.925925        0.4629987142857143        0        
C4        C        0.84375        0.925925        0.4629987142857143        0        
C4        C        0.9062500000000001        0.925925        0.4629987142857143        0        
C4        C        0.9687500000000001        0.925925        0.4629987142857143        0        
C_COOH        C        0.0        0.018519        0.06544808163265306        0.55        
C_COOH        C        0.0        0.12963        0.06544808163265306        0.55        
C_COOH        C        0.0        0.24074099999999998        0.06544808163265306        0.55        
C_COOH        C        0.0        0.351852        0.06544808163265306        0.55        
C_COOH        C        0.0        0.46296300000000007        0.06544808163265306        0.55        
C_COOH        C        0.0        0.574075        0.06544808163265306        0.55        
C_COOH        C        0.25        0.018519        0.06544808163265306        0.55        
C_COOH        C        0.25        0.12963        0.06544808163265306        0.55        
C_COOH        C        0.25        0.24074099999999998        0.06544808163265306        0.55        
C_COOH        C        0.25        0.351852        0.06544808163265306        0.55        
C_COOH        C        0.25        0.46296300000000007        0.06544808163265306        0.55        
C_COOH        C        0.25        0.574075        0.06544808163265306        0.55        
C_COOH        C        0.5        0.018519        0.06544808163265306        0.55        
C_COOH        C        0.5        0.12963        0.06544808163265306        0.55        
C_COOH        C        0.5        0.24074099999999998        0.06544808163265306        0.55        
C_COOH        C        0.5        0.351852        0.06544808163265306        0.55        
C_COOH        C        0.5        0.46296300000000007        0.06544808163265306        0.55        
C_COOH        C        0.5        0.574075        0.06544808163265306        0.55        
C_COOH        C        0.75        0.018519        0.06544808163265306        0.55        
C_COOH        C        0.75        0.12963        0.06544808163265306        0.55        
C_COOH        C        0.75        0.24074099999999998        0.06544808163265306        0.55        
C_COOH        C        0.75        0.351852        0.06544808163265306        0.55        
C_COOH        C        0.75        0.46296300000000007        0.06544808163265306        0.55        
C_COOH        C        0.75        0.574075        0.06544808163265306        0.55        
C_COOH        C        0.0        0.685186        0.06544808163265306        0.55        
C_COOH        C        0.25        0.685186        0.06544808163265306        0.55        
C_COOH        C        0.5        0.685186        0.06544808163265306        0.55        
C_COOH        C        0.75        0.685186        0.06544808163265306        0.55        
C_COOH        C        0.0        0.796297        0.06544808163265306        0.55        
C_COOH        C        0.25        0.796297        0.06544808163265306        0.55        
C_COOH        C        0.5        0.796297        0.06544808163265306        0.55        
C_COOH        C        0.75        0.796297        0.06544808163265306        0.55        
C_COOH        C        0.0        0.907408        0.06544808163265306        0.55        
C_COOH        C        0.25        0.907408        0.06544808163265306        0.55        
C_COOH        C        0.5        0.907408        0.06544808163265306        0.55        
C_COOH        C        0.75        0.907408        0.06544808163265306        0.55        
C_COOH        C        0.0        0.018519        0.5870807346938776        0.55        
C_COOH        C        0.0        0.12963        0.5870807346938776        0.55        
C_COOH        C        0.0        0.24074099999999998        0.5870807346938776        0.55        
C_COOH        C        0.0        0.351852        0.5870807346938776        0.55        
C_COOH        C        0.0        0.46296300000000007        0.5870807346938776        0.55        
C_COOH        C        0.0        0.574075        0.5870807346938776        0.55        
C_COOH        C        0.25        0.018519        0.5870807346938776        0.55        
C_COOH        C        0.25        0.12963        0.5870807346938776        0.55        
C_COOH        C        0.25        0.24074099999999998        0.5870807346938776        0.55        
C_COOH        C        0.25        0.351852        0.5870807346938776        0.55        
C_COOH        C        0.25        0.46296300000000007        0.5870807346938776        0.55        
C_COOH        C        0.25        0.574075        0.5870807346938776        0.55        
C_COOH        C        0.5        0.018519        0.5870807346938776        0.55        
C_COOH        C        0.5        0.12963        0.5870807346938776        0.55        
C_COOH        C        0.5        0.24074099999999998        0.5870807346938776        0.55        
C_COOH        C        0.5        0.351852        0.5870807346938776        0.55        
C_COOH        C        0.5        0.46296300000000007        0.5870807346938776        0.55        
C_COOH        C        0.5        0.574075        0.5870807346938776        0.55        
C_COOH        C        0.75        0.018519        0.5870807346938776        0.55        
C_COOH        C        0.75        0.12963        0.5870807346938776        0.55        
C_COOH        C        0.75        0.24074099999999998        0.5870807346938776        0.55        
C_COOH        C        0.75        0.351852        0.5870807346938776        0.55        
C_COOH        C        0.75        0.46296300000000007        0.5870807346938776        0.55        
C_COOH        C        0.75        0.574075        0.5870807346938776        0.55        
C_COOH        C        0.0        0.685186        0.5870807346938776        0.55        
C_COOH        C        0.25        0.685186        0.5870807346938776        0.55        
C_COOH        C        0.5        0.685186        0.5870807346938776        0.55        
C_COOH        C        0.75        0.685186        0.5870807346938776        0.55        
C_COOH        C        0.0        0.796297        0.5870807346938776        0.55        
C_COOH        C        0.25        0.796297        0.5870807346938776        0.55        
C_COOH        C        0.5        0.796297        0.5870807346938776        0.55        
C_COOH        C        0.75        0.796297        0.5870807346938776        0.55        
C_COOH        C        0.0        0.907408        0.5870807346938776        0.55        
C_COOH        C        0.25        0.907408        0.5870807346938776        0.55        
C_COOH        C        0.5        0.907408        0.5870807346938776        0.55        
C_COOH        C        0.75        0.907408        0.5870807346938776        0.55        
O1_COOH        O        0.007636561635296477        0.04702142423584032        0.029933061224489788        -0.5        
O1_COOH        O        0.02184743753812457        0.1488862799851622        0.029933061224489788        -0.5        
O1_COOH        O        -0.018028076992221        0.26379126298864164        0.029933061224489788        -0.5        
O1_COOH        O        -0.021849513846337175        0.3711057969976468        0.029933061224489788        -0.5        
O1_COOH        O        0.006334233531656328        0.49179984661656506        0.029933061224489788        -0.5        
O1_COOH        O        -0.002934919053527286        0.6034819942567705        0.029933061224489788        -0.5        
O1_COOH        O        0.2775445188706688        0.027135433561724206        0.029933061224489788        -0.5        
O1_COOH        O        0.25818638985889847        0.15797112239589864        0.029933061224489788        -0.5        
O1_COOH        O        0.22412310599383842        0.2537076111269892        0.029933061224489788        -0.5        
O1_COOH        O        0.27694383331255024        0.36227975053324657        0.029933061224489788        -0.5        
O1_COOH        O        0.2212568778763051        0.4647346819757734        0.029933061224489788        -0.5        
O1_COOH        O        0.2773892620515926        0.5831981360745819        0.029933061224489788        -0.5        
O1_COOH        O        0.5091958956892918        0.04653195431662513        0.029933061224489788        -0.5        
O1_COOH        O        0.4763959878223173        0.14656106227114704        0.029933061224489788        -0.5        
O1_COOH        O        0.5247768730972067        0.25580278650525073        0.029933061224489788        -0.5        
O1_COOH        O        0.48654080970906666        0.3779849833491758        0.029933061224489788        -0.5        
O1_COOH        O        0.47867340966287864        0.48282511976258685        0.029933061224489788        -0.5        
O1_COOH        O        0.47197582754652045        0.5808685370504405        0.029933061224489788        -0.5        
O1_COOH        O        0.7787797948869886        0.019475867687604564        0.029933061224489788        -0.5        
O1_COOH        O        0.7787170094458358        0.131802600379743        0.029933061224489788        -0.5        
O1_COOH        O        0.7724078540152999        0.2593061753133564        0.029933061224489788        -0.5        
O1_COOH        O        0.7765114668157792        0.36338874051823683        0.029933061224489788        -0.5        
O1_COOH        O        0.7698920274546548        0.48433640839257275        0.029933061224489788        -0.5        
O1_COOH        O        0.7628223596923218        0.6005433225562655        0.029933061224489788        -0.5        
O1_COOH        O        0.008270661766579954        0.7135013240722148        0.029933061224489788        -0.5        
O1_COOH        O        0.27749452557357634        0.6939691010897818        0.029933061224489788        -0.5        
O1_COOH        O        0.4994747449443115        0.7147420266506903        0.029933061224489788        -0.5        
O1_COOH        O        0.7429341098312656        0.713843125224207        0.029933061224489788        -0.5        
O1_COOH        O        -0.02822174107113831        0.8021656098516053        0.029933061224489788        -0.5        
O1_COOH        O        0.23382066996343034        0.8207503259728103        0.029933061224489788        -0.5        
O1_COOH        O        0.5102902088653989        0.8239059118033542        0.029933061224489788        -0.5        
O1_COOH        O        0.7256006183681467        0.8119948311731312        0.029933061224489788        -0.5        
O1_COOH        O        0.02517077593906821        0.9217649537872561        0.029933061224489788        -0.5        
O1_COOH        O        0.27850502456539716        0.9115918271470407        0.029933061224489788        -0.5        
O1_COOH        O        0.5240044487586616        0.9237349359706293        0.029933061224489788        -0.5        
O1_COOH        O        0.7535040585025934        0.9367492516896373        0.029933061224489788        -0.5        
O1_COOH        O        -0.01723363316988009        0.04220102783329747        0.6225957551020408        -0.5        
O1_COOH        O        -0.02570026169100925        0.14296170585075774        0.6225957551020408        -0.5        
O1_COOH        O        -0.009693859034684166        0.2685764459123594        0.6225957551020408        -0.5        
O1_COOH        O        -0.00039385916949676367        0.381410179756411        0.6225957551020408        -0.5        
O1_COOH        O        0.01831245278357163        0.485775783041372        0.6225957551020408        -0.5        
O1_COOH        O        0.0272188867728877        0.5837205750232853        0.6225957551020408        -0.5        
O1_COOH        O        0.26558151513846534        0.04337812236494275        0.6225957551020408        -0.5        
O1_COOH        O        0.2489823909116998        0.15917247991548983        0.6225957551020408        -0.5        
O1_COOH        O        0.26499980042322874        0.2659744046185717        0.6225957551020408        -0.5        
O1_COOH        O        0.2506167976604136        0.38140616262012655        0.6225957551020408        -0.5        
O1_COOH        O        0.26076126385633863        0.4903819890009094        0.6225957551020408        -0.5        
O1_COOH        O        0.23068682050477907        0.5960007839140382        0.6225957551020408        -0.5        
O1_COOH        O        0.5084672805090062        0.04677301117095825        0.6225957551020408        -0.5        
O1_COOH        O        0.49093539113808166        0.1576880154200205        0.6225957551020408        -0.5        
O1_COOH        O        0.5201666317094445        0.2618414553981647        0.6225957551020408        -0.5        
O1_COOH        O        0.5286906182051957        0.35436535168468675        0.6225957551020408        -0.5        
O1_COOH        O        0.5012265592451519        0.49249711447830696        0.6225957551020408        -0.5        
O1_COOH        O        0.47673061721098087        0.591487402702238        0.6225957551020408        -0.5        
O1_COOH        O        0.7351891569450265        0.0438697663499877        0.6225957551020408        -0.5        
O1_COOH        O        0.7531297449664424        0.1590158138047151        0.6225957551020408        -0.5        
O1_COOH        O        0.7739029933129421        0.257224062998395        0.6225957551020408        -0.5        
O1_COOH        O        0.760872129789308        0.3792248558829752        0.6225957551020408        -0.5        
O1_COOH        O        0.7768733100480474        0.47358081390673346        0.6225957551020408        -0.5        
O1_COOH        O        0.7213036462920933        0.57651836806581        0.6225957551020408        -0.5        
O1_COOH        O        0.009736173025314349        0.7130058770543477        0.6225957551020408        -0.5        
O1_COOH        O        0.2274105400022653        0.7035177583426039        0.6225957551020408        -0.5        
O1_COOH        O        0.4938742824021129        0.7140702846541022        0.6225957551020408        -0.5        
O1_COOH        O        0.7409718611986257        0.7132564052158828        0.6225957551020408        -0.5        
O1_COOH        O        -0.014595787450690848        0.8217788834221234        0.6225957551020408        -0.5        
O1_COOH        O        0.2215210120707639        0.8006637007143721        0.6225957551020408        -0.5        
O1_COOH        O        0.5269581626078279        0.8066856457309304        0.6225957551020408        -0.5        
O1_COOH        O        0.7768210447126885        0.8070531904375449        0.6225957551020408        -0.5        
O1_COOH        O        -0.02797685878650524        0.9144040428934332        0.6225957551020408        -0.5        
O1_COOH        O        0.2675093018275523        0.930875946699957        0.6225957551020408        -0.5        
O1_COOH        O        0.4863514144022802        0.9334372513200557        0.6225957551020408        -0.5        
O1_COOH        O        0.7305853046465002        0.9292390910567191        0.6225957551020408        -0.5        
O2_COOH        O        -0.007435316361233405        -0.00923230371187417        0.0        -0.58        
O2_COOH        O        -0.021271694976889417        0.11088117815216725        0.0        -0.58        
O2_COOH        O        0.017552985521949796        0.21829817746871477        0.0        -0.58        
O2_COOH        O        0.021273716568433017        0.33310559570584913        0.0        -0.58        
O2_COOH        O        -0.006167308333650225        0.4348860868950881        0.0        -0.58        
O2_COOH        O        0.0028575755293749924        0.545442964278393        0.0        -0.58        
O2_COOH        O        0.22318135810299985        0.010129634144448786        0.0        -0.58        
O2_COOH        O        0.2420293449638425        0.10203574736253504        0.0        -0.58        
O2_COOH        O        0.27519496372459334        0.2281160962191362        0.0        -0.58        
O2_COOH        O        0.2237662138759949        0.3416990505636535        0.0        -0.58        
O2_COOH        O        0.27798565852090334        0.4612380069192812        0.0        -0.58        
O2_COOH        O        0.2233325234601594        0.565192284694257        0.0        -0.58        
O2_COOH        O        0.491046442503815        -0.00875573272711959        0.0        -0.58        
O2_COOH        O        0.5229819788429775        0.11314511971881913        0.0        -0.58        
O2_COOH        O        0.47587606848239467        0.2260761347137333        0.0        -0.58        
O2_COOH        O        0.5131045020728423        0.3264076956201502        0.0        -0.58        
O2_COOH        O        0.5207645735916023        0.4436243039883092        0.0        -0.58        
O2_COOH        O        0.5272856552339334        0.5674604921109629        0.0        -0.58        
O2_COOH        O        0.7219786351481651        0.0175873485169166        0.0        -0.58        
O2_COOH        O        0.7220397660130943        0.12751465386368904        0.0        -0.58        
O2_COOH        O        0.7281826571254248        0.22266507023619778        0.0        -0.58        
O2_COOH        O        0.7241871862770597        0.34061928564147564        0.0        -0.58        
O2_COOH        O        0.730632184449598        0.44215284214281814        0.0        -0.58        
O2_COOH        O        0.737515546215291        0.5483041935617483        0.0        -0.58        
O2_COOH        O        -0.008052706137674235        0.6576168658264903        0.0        -0.58        
O2_COOH        O        0.22323003393350788        0.6766343587831755        0.0        -0.58        
O2_COOH        O        0.5005114130803752        0.656408859314957        0.0        -0.58        
O2_COOH        O        0.7568796837225067        0.6572840721139444        0.0        -0.58        
O2_COOH        O        0.027478017352580545        0.7905830448286498        0.0        -0.58        
O2_COOH        O        0.2657529583443258        0.7724880892132606        0.0        -0.58        
O2_COOH        O        0.4899809676145646        0.7694156621085446        0.0        -0.58        
O2_COOH        O        0.7737563880336904        0.7810128516448049        0.0        -0.58        
O2_COOH        O        -0.024507453891246974        0.8934293930706115        0.0        -0.58        
O2_COOH        O        0.22224616448470144        0.9033344286828798        0.0        -0.58        
O2_COOH        O        0.47662813722700537        0.8915113255607952        0.0        -0.58        
O2_COOH        O        0.7465882834763449        0.8788399743405624        0.0        -0.58        
O2_COOH        O        0.01677947757001629        -0.004538938562590463        0.6525288163265306        -0.58        
O2_COOH        O        0.0250229861769095        0.11664962278715484        0.6525288163265306        -0.58        
O2_COOH        O        0.009438398081007458        0.2136390978222199        0.6525288163265306        -0.58        
O2_COOH        O        0.0003834798521687562        0.3230727629497397        0.6525288163265306        -0.58        
O2_COOH        O        -0.017829867196602314        0.44075139913911143        0.6525288163265306        -0.58        
O2_COOH        O        -0.02650159113777051        0.5646836135083811        0.6525288163265306        -0.58        
O2_COOH        O        0.2348291024187694        -0.005685013281533102        0.6525288163265306        -0.58        
O2_COOH        O        0.2509907921738766        0.10086604905488032        0.6525288163265306        -0.58        
O2_COOH        O        0.23539548728493456        0.21617256787435463        0.6525288163265306        -0.58        
O2_COOH        O        0.24939945672475858        0.3230766742229759        0.6525288163265306        -0.58        
O2_COOH        O        0.23952232627197567        0.43626657990111023        0.6525288163265306        -0.58        
O2_COOH        O        0.26880422189281244        0.5527270232986258        0.6525288163265306        -0.58        
O2_COOH        O        0.4917558565869779        -0.00899043704283235        0.6525288163265306        -0.58        
O2_COOH        O        0.5088257304527847        0.10231139365863726        0.6525288163265306        -0.58        
O2_COOH        O        0.48036481680352733        0.22019660204394798        0.6525288163265306        -0.58        
O2_COOH        O        0.4720654617689456        0.34940488233171446        0.6525288163265306        -0.58        
O2_COOH        O        0.4988057641044436        0.4342071940388307        0.6525288163265306        -0.58        
O2_COOH        O        0.5226561678972529        0.5571214639868897        0.6525288163265306        -0.58        
O2_COOH        O        0.764420534914733        -0.006163701039255212        0.6525288163265306        -0.58        
O2_COOH        O        0.7469527327785952        0.10101858656486519        0.6525288163265306        -0.58        
O2_COOH        O        0.7267269190311103        0.22469231292743772        0.6525288163265306        -0.58        
O2_COOH        O        0.7394143819739162        0.3252004972792381        0.6525288163265306        -0.58        
O2_COOH        O        0.7238348786504638        0.45262499590449573        0.6525288163265306        -0.58        
O2_COOH        O        0.7779401225868395        0.5716960216817653        0.6525288163265306        -0.58        
O2_COOH        O        -0.009479596976775875        0.658099256396226        0.6525288163265306        -0.58        
O2_COOH        O        0.2719941630191614        0.6673373360011468        0.6525288163265306        -0.58        
O2_COOH        O        0.5059642873920308        0.6570628989857265        0.6525288163265306        -0.58        
O2_COOH        O        0.7587902214828046        0.6578553303693865        0.6525288163265306        -0.58        
O2_COOH        O        0.014211146641651327        0.7714866371990455        0.6525288163265306        -0.58        
O2_COOH        O        0.27772848501908237        0.7920453743578898        0.6525288163265306        -0.58        
O2_COOH        O        0.4737522621986942        0.7861821248424127        0.6525288163265306        -0.58        
O2_COOH        O        0.7238857666445215        0.7858242659916513        0.6525288163265306        -0.58        
O2_COOH        O        0.027239588417614213        0.9005963228770121        0.6525288163265306        -0.58        
O2_COOH        O        0.2329521184310956        0.8845585009196499        0.6525288163265306        -0.58        
O2_COOH        O        0.513288906270771        0.8820646940131619        0.6525288163265306        -0.58        
O2_COOH        O        0.7689030625174331        0.8861522207279066        0.6525288163265306        -0.58        
H_COOH        H        -0.012655043341521722        -0.02871422239367937        0.047653877551020414        0.45        
H_COOH        H        -0.03620481077089103        0.09771916506581113        0.047653877551020414        0.45        
H_COOH        H        0.02987549981215989        0.20254290888442827        0.047653877551020414        0.45        
H_COOH        H        0.036208251556374825        0.31994527978603804        0.047653877551020414        0.45        
H_COOH        H        -0.010496870673828977        0.4151755845120249        0.047653877551020414        0.45        
H_COOH        H        0.004863645394358656        0.525342755747137        0.047653877551020414        0.45        
H_COOH        H        0.20435418493598745        0.004240147110373731        0.047653877551020414        0.45        
H_COOH        H        0.23643380052141338        0.08266408138425312        0.047653877551020414        0.45        
H_COOH        H        0.29288228535710953        0.21925318471854374        0.047653877551020414        0.45        
H_COOH        H        0.20534962007232954        0.33457149586016943        0.047653877551020414        0.45        
H_COOH        H        0.29763209853041256        0.4600270304810513        0.047653877551020414        0.45        
H_COOH        H        0.20461147111637973        0.5589564573955897        0.047653877551020414        0.45        
H_COOH        H        0.4847608827022081        -0.027903089931471614        0.047653877551020414        0.45        
H_COOH        H        0.5391157449396773        0.1015724346856528        0.047653877551020414        0.45        
H_COOH        H        0.4589406308903102        0.21578113322649037        0.047653877551020414        0.45        
H_COOH        H        0.5223041002754819        0.3085453323239988        0.047653877551020414        0.45        
H_COOH        H        0.5353416809727184        0.4300481885371744        0.047653877551020414        0.45        
H_COOH        H        0.5464406802362296        0.5628169875696163        0.047653877551020414        0.45        
H_COOH        H        0.7023071286465422        0.016933312273370756        0.047653877551020414        0.45        
H_COOH        H        0.7024111744877142        0.1260296424984807        0.047653877551020414        0.45        
H_COOH        H        0.7128664866078694        0.2099754396007283        0.047653877551020414        0.45        
H_COOH        H        0.706066122736404        0.3327337163730639        0.047653877551020414        0.45        
H_COOH        H        0.7170356265539887        0.42754373378025584        0.047653877551020414        0.45        
H_COOH        H        0.7287512331601034        0.5302126198970581        0.047653877551020414        0.45        
H_COOH        H        -0.013705851941974469        0.638262833465615        0.047653877551020414        0.45        
H_COOH        H        0.20443703208260983        0.6706309515014173        0.047653877551020414        0.45        
H_COOH        H        0.5008704343410741        0.6362067844668124        0.047653877551020414        0.45        
H_COOH        H        0.761709346509883        0.6376964125291753        0.047653877551020414        0.45        
H_COOH        H        0.046768084052083124        0.7865717446333333        0.047653877551020414        0.45        
H_COOH        H        0.27681182089897766        0.7557738018894856        0.047653877551020414        0.45        
H_COOH        H        0.4829474251104008        0.750544475215967        0.047653877551020414        0.45        
H_COOH        H        0.7904338034319348        0.7702831022078749        0.047653877551020414        0.45        
H_COOH        H        -0.041712131147655394        0.883616157400291        0.047653877551020414        0.45        
H_COOH        H        0.2027624684309593        0.9004747077137812        0.047653877551020414        0.45        
H_COOH        H        0.46022066553799185        0.8803515717001789        0.047653877551020414        0.45        
H_COOH        H        0.7441931965799128        0.8587847020342473        0.047653877551020414        0.45        
H_COOH        H        0.028558975244655622        -0.020726029760552437        0.6048749387755102        0.45        
H_COOH        H        0.04258957645086113        0.10753716248815981        0.6048749387755102        0.45        
H_COOH        H        0.01606432476934593        0.19461307079907025        0.6048749387755102        0.45        
H_COOH        H        0.0006526896656473836        0.30286921641517933        0.6048749387755102        0.45        
H_COOH        H        -0.03034675744572472        0.42515845236236616        0.6048749387755102        0.45        
H_COOH        H        -0.045106188919732754        0.5580906898086979        0.6048749387755102        0.45        
H_COOH        H        0.2241788570798066        -0.02267666972477253        0.6048749387755102        0.45        
H_COOH        H        0.25168634625531516        0.08067323364345579        0.6048749387755102        0.45        
H_COOH        H        0.22514285439761714        0.19892508279110524        0.6048749387755102        0.45        
H_COOH        H        0.24897786445022513        0.3028758734731874        0.6048749387755102        0.45        
H_COOH        H        0.23216680922444627        0.4175252086537715        0.6048749387755102        0.45        
H_COOH        H        0.28200512681583567        0.5377403563501001        0.6048749387755102        0.45        
H_COOH        H        0.4859683183422462        -0.028302560934921218        0.6048749387755102        0.45        
H_COOH        H        0.5150215533508314        0.0831332363811126        0.6048749387755102        0.45        
H_COOH        H        0.46658056196967773        0.2057740619535091        0.6048749387755102        0.45        
H_COOH        H        0.45245490913035663        0.34768696133191845        0.6048749387755102        0.45        
H_COOH        H        0.49796738883942243        0.4140200965539091        0.6048749387755102        0.45        
H_COOH        H        0.5385612087990519        0.5452197741273553        0.6048749387755102        0.45        
H_COOH        H        0.774544012048413        -0.023491404972974427        0.6048749387755102        0.45        
H_COOH        H        0.7448134959043384        0.08093285525285104        0.6048749387755102        0.45        
H_COOH        H        0.7103887939607204        0.21342584344032609        0.6048749387755102        0.45        
H_COOH        H        0.7319830860707772        0.30649065884625565        0.6048749387755102        0.45        
H_COOH        H        0.7054664887642215        0.44536752947294184        0.6048749387755102        0.45        
H_COOH        H        0.7975545955445036        0.5700259357419183        0.6048749387755102        0.45        
H_COOH        H        -0.016134446037391833        0.6390838709670419        0.6048749387755102        0.45        
H_COOH        H        0.2874344644861634        0.6548072500558245        0.6048749387755102        0.45        
H_COOH        H        0.5101513253478996        0.6373199718523305        0.6048749387755102        0.45        
H_COOH        H        0.7649611164397065        0.6386687044439504        0.6048749387755102        0.45        
H_COOH        H        0.0241876294088158        0.7540693123925188        0.6048749387755102        0.45        
H_COOH        H        0.2971943845645612        0.7890606560223102        0.6048749387755102        0.45        
H_COOH        H        0.4553258740644464        0.7790812989733775        0.6048749387755102        0.45        
H_COOH        H        0.7055531010533397        0.7784722167169528        0.6048749387755102        0.45        
H_COOH        H        0.0463622736790903        0.895814401956303        0.6048749387755102        0.45        
H_COOH        H        0.22098419627973623        0.8685177380198194        0.6048749387755102        0.45        
H_COOH        H        0.5226179595658967        0.864273233421261        0.6048749387755102        0.45        
H_COOH        H        0.782173355352149        0.8712302780474213        0.6048749387755102        0.45        
