data_graphite_ortho

_audit_creation_method RASPA-1.0
_audit_creation_date 2012-2-3
_audit_author_name 'David Dubbeldam'

_cell_length_a    39.36    
_cell_length_b    38.34    
_cell_length_c    34.6    
_cell_angle_alpha 90
_cell_angle_beta  90
_cell_angle_gamma 90
_cell_volume      52213.56      

_symmetry_cell_setting          triclinic
_symmetry_space_group_name_Hall 'P 1'
_symmetry_space_group_name_H-M  'P 1'
_symmetry_Int_Tables_number     1

_symmetry_equiv_pos_as_xyz 'x,y,z'

loop_
_atom_site_label
_atom_site_type_symbol
_atom_site_fract_x
_atom_site_fract_y
_atom_site_fract_z
_atom_site_charge
C_FG        C        0.0        0.018519        0.06710228323699421        0.08        
C2        C        0.03125        0.074075        0.06710228323699421        0        
C3        C        0.0        0.092592        0.06710228323699421        0        
C4        C        0.03125        0.037037        0.06710228323699421        0        
C1        C        0.0        0.12963        0.06710228323699421        0        
C2        C        0.03125        0.185185        0.06710228323699421        0        
C_FG        C        0.0        0.203703        0.06710228323699421        0.08        
C4        C        0.03125        0.148148        0.06710228323699421        0        
C1        C        0.0        0.24074099999999998        0.06710228323699421        0        
C2        C        0.03125        0.296297        0.06710228323699421        0        
C3        C        0.0        0.314815        0.06710228323699421        0        
C4        C        0.03125        0.259259        0.06710228323699421        0        
C_FG        C        0.0        0.351852        0.06710228323699421        0.08        
C2        C        0.03125        0.407408        0.06710228323699421        0        
C3        C        0.0        0.42592500000000005        0.06710228323699421        0        
C4        C        0.03125        0.37037        0.06710228323699421        0        
C1        C        0.0        0.46296300000000007        0.06710228323699421        0        
C2        C        0.03125        0.518519        0.06710228323699421        0        
C_FG        C        0.0        0.537037        0.06710228323699421        0.08        
C4        C        0.03125        0.481481        0.06710228323699421        0        
C1        C        0.0        0.574075        0.06710228323699421        0        
C2        C        0.03125        0.62963        0.06710228323699421        0        
C3        C        0.0        0.648148        0.06710228323699421        0        
C4        C        0.03125        0.592592        0.06710228323699421        0        
C1        C        0.0625        0.018519        0.06710228323699421        0        
C2        C        0.09375        0.074075        0.06710228323699421        0        
C3        C        0.0625        0.092592        0.06710228323699421        0        
C4        C        0.09375        0.037037        0.06710228323699421        0        
C1        C        0.0625        0.12963        0.06710228323699421        0        
C2        C        0.09375        0.185185        0.06710228323699421        0        
C3        C        0.0625        0.203703        0.06710228323699421        0        
C4        C        0.09375        0.148148        0.06710228323699421        0        
C1        C        0.0625        0.24074099999999998        0.06710228323699421        0        
C2        C        0.09375        0.296297        0.06710228323699421        0        
C3        C        0.0625        0.314815        0.06710228323699421        0        
C4        C        0.09375        0.259259        0.06710228323699421        0        
C1        C        0.0625        0.351852        0.06710228323699421        0        
C2        C        0.09375        0.407408        0.06710228323699421        0        
C3        C        0.0625        0.42592500000000005        0.06710228323699421        0        
C4        C        0.09375        0.37037        0.06710228323699421        0        
C1        C        0.0625        0.46296300000000007        0.06710228323699421        0        
C2        C        0.09375        0.518519        0.06710228323699421        0        
C3        C        0.0625        0.537037        0.06710228323699421        0        
C4        C        0.09375        0.481481        0.06710228323699421        0        
C1        C        0.0625        0.574075        0.06710228323699421        0        
C2        C        0.09375        0.62963        0.06710228323699421        0        
C3        C        0.0625        0.648148        0.06710228323699421        0        
C4        C        0.09375        0.592592        0.06710228323699421        0        
C1        C        0.125        0.018519        0.06710228323699421        0        
C2        C        0.15625        0.074075        0.06710228323699421        0        
C3        C        0.125        0.092592        0.06710228323699421        0        
C4        C        0.15625        0.037037        0.06710228323699421        0        
C1        C        0.125        0.12963        0.06710228323699421        0        
C2        C        0.15625        0.185185        0.06710228323699421        0        
C3        C        0.125        0.203703        0.06710228323699421        0        
C4        C        0.15625        0.148148        0.06710228323699421        0        
C1        C        0.125        0.24074099999999998        0.06710228323699421        0        
C2        C        0.15625        0.296297        0.06710228323699421        0        
C3        C        0.125        0.314815        0.06710228323699421        0        
C4        C        0.15625        0.259259        0.06710228323699421        0        
C1        C        0.125        0.351852        0.06710228323699421        0        
C2        C        0.15625        0.407408        0.06710228323699421        0        
C3        C        0.125        0.42592500000000005        0.06710228323699421        0        
C4        C        0.15625        0.37037        0.06710228323699421        0        
C1        C        0.125        0.46296300000000007        0.06710228323699421        0        
C2        C        0.15625        0.518519        0.06710228323699421        0        
C3        C        0.125        0.537037        0.06710228323699421        0        
C4        C        0.15625        0.481481        0.06710228323699421        0        
C1        C        0.125        0.574075        0.06710228323699421        0        
C2        C        0.15625        0.62963        0.06710228323699421        0        
C3        C        0.125        0.648148        0.06710228323699421        0        
C4        C        0.15625        0.592592        0.06710228323699421        0        
C1        C        0.1875        0.018519        0.06710228323699421        0        
C2        C        0.21875        0.074075        0.06710228323699421        0        
C3        C        0.1875        0.092592        0.06710228323699421        0        
C4        C        0.21875        0.037037        0.06710228323699421        0        
C1        C        0.1875        0.12963        0.06710228323699421        0        
C2        C        0.21875        0.185185        0.06710228323699421        0        
C3        C        0.1875        0.203703        0.06710228323699421        0        
C4        C        0.21875        0.148148        0.06710228323699421        0        
C1        C        0.1875        0.24074099999999998        0.06710228323699421        0        
C2        C        0.21875        0.296297        0.06710228323699421        0        
C3        C        0.1875        0.314815        0.06710228323699421        0        
C4        C        0.21875        0.259259        0.06710228323699421        0        
C1        C        0.1875        0.351852        0.06710228323699421        0        
C2        C        0.21875        0.407408        0.06710228323699421        0        
C3        C        0.1875        0.42592500000000005        0.06710228323699421        0        
C4        C        0.21875        0.37037        0.06710228323699421        0        
C1        C        0.1875        0.46296300000000007        0.06710228323699421        0        
C2        C        0.21875        0.518519        0.06710228323699421        0        
C3        C        0.1875        0.537037        0.06710228323699421        0        
C4        C        0.21875        0.481481        0.06710228323699421        0        
C1        C        0.1875        0.574075        0.06710228323699421        0        
C2        C        0.21875        0.62963        0.06710228323699421        0        
C3        C        0.1875        0.648148        0.06710228323699421        0        
C4        C        0.21875        0.592592        0.06710228323699421        0        
C_FG        C        0.25        0.018519        0.06710228323699421        0.08        
C2        C        0.28125        0.074075        0.06710228323699421        0        
C3        C        0.25        0.092592        0.06710228323699421        0        
C4        C        0.28125        0.037037        0.06710228323699421        0        
C1        C        0.25        0.12963        0.06710228323699421        0        
C2        C        0.28125        0.185185        0.06710228323699421        0        
C_FG        C        0.25        0.203703        0.06710228323699421        0.08        
C4        C        0.28125        0.148148        0.06710228323699421        0        
C1        C        0.25        0.24074099999999998        0.06710228323699421        0        
C2        C        0.28125        0.296297        0.06710228323699421        0        
C3        C        0.25        0.314815        0.06710228323699421        0        
C4        C        0.28125        0.259259        0.06710228323699421        0        
C_FG        C        0.25        0.351852        0.06710228323699421        0.08        
C2        C        0.28125        0.407408        0.06710228323699421        0        
C3        C        0.25        0.42592500000000005        0.06710228323699421        0        
C4        C        0.28125        0.37037        0.06710228323699421        0        
C1        C        0.25        0.46296300000000007        0.06710228323699421        0        
C2        C        0.28125        0.518519        0.06710228323699421        0        
C_FG        C        0.25        0.537037        0.06710228323699421        0.08        
C4        C        0.28125        0.481481        0.06710228323699421        0        
C1        C        0.25        0.574075        0.06710228323699421        0        
C2        C        0.28125        0.62963        0.06710228323699421        0        
C3        C        0.25        0.648148        0.06710228323699421        0        
C4        C        0.28125        0.592592        0.06710228323699421        0        
C1        C        0.3125        0.018519        0.06710228323699421        0        
C2        C        0.34375        0.074075        0.06710228323699421        0        
C3        C        0.3125        0.092592        0.06710228323699421        0        
C4        C        0.34375        0.037037        0.06710228323699421        0        
C1        C        0.3125        0.12963        0.06710228323699421        0        
C2        C        0.34375        0.185185        0.06710228323699421        0        
C3        C        0.3125        0.203703        0.06710228323699421        0        
C4        C        0.34375        0.148148        0.06710228323699421        0        
C1        C        0.3125        0.24074099999999998        0.06710228323699421        0        
C2        C        0.34375        0.296297        0.06710228323699421        0        
C3        C        0.3125        0.314815        0.06710228323699421        0        
C4        C        0.34375        0.259259        0.06710228323699421        0        
C1        C        0.3125        0.351852        0.06710228323699421        0        
C2        C        0.34375        0.407408        0.06710228323699421        0        
C3        C        0.3125        0.42592500000000005        0.06710228323699421        0        
C4        C        0.34375        0.37037        0.06710228323699421        0        
C1        C        0.3125        0.46296300000000007        0.06710228323699421        0        
C2        C        0.34375        0.518519        0.06710228323699421        0        
C3        C        0.3125        0.537037        0.06710228323699421        0        
C4        C        0.34375        0.481481        0.06710228323699421        0        
C1        C        0.3125        0.574075        0.06710228323699421        0        
C2        C        0.34375        0.62963        0.06710228323699421        0        
C3        C        0.3125        0.648148        0.06710228323699421        0        
C4        C        0.34375        0.592592        0.06710228323699421        0        
C1        C        0.375        0.018519        0.06710228323699421        0        
C2        C        0.40625        0.074075        0.06710228323699421        0        
C3        C        0.375        0.092592        0.06710228323699421        0        
C4        C        0.40625        0.037037        0.06710228323699421        0        
C1        C        0.375        0.12963        0.06710228323699421        0        
C2        C        0.40625        0.185185        0.06710228323699421        0        
C3        C        0.375        0.203703        0.06710228323699421        0        
C4        C        0.40625        0.148148        0.06710228323699421        0        
C1        C        0.375        0.24074099999999998        0.06710228323699421        0        
C2        C        0.40625        0.296297        0.06710228323699421        0        
C3        C        0.375        0.314815        0.06710228323699421        0        
C4        C        0.40625        0.259259        0.06710228323699421        0        
C1        C        0.375        0.351852        0.06710228323699421        0        
C2        C        0.40625        0.407408        0.06710228323699421        0        
C3        C        0.375        0.42592500000000005        0.06710228323699421        0        
C4        C        0.40625        0.37037        0.06710228323699421        0        
C1        C        0.375        0.46296300000000007        0.06710228323699421        0        
C2        C        0.40625        0.518519        0.06710228323699421        0        
C3        C        0.375        0.537037        0.06710228323699421        0        
C4        C        0.40625        0.481481        0.06710228323699421        0        
C1        C        0.375        0.574075        0.06710228323699421        0        
C2        C        0.40625        0.62963        0.06710228323699421        0        
C3        C        0.375        0.648148        0.06710228323699421        0        
C4        C        0.40625        0.592592        0.06710228323699421        0        
C1        C        0.4375        0.018519        0.06710228323699421        0        
C2        C        0.46875        0.074075        0.06710228323699421        0        
C3        C        0.4375        0.092592        0.06710228323699421        0        
C4        C        0.46875        0.037037        0.06710228323699421        0        
C1        C        0.4375        0.12963        0.06710228323699421        0        
C2        C        0.46875        0.185185        0.06710228323699421        0        
C3        C        0.4375        0.203703        0.06710228323699421        0        
C4        C        0.46875        0.148148        0.06710228323699421        0        
C1        C        0.4375        0.24074099999999998        0.06710228323699421        0        
C2        C        0.46875        0.296297        0.06710228323699421        0        
C3        C        0.4375        0.314815        0.06710228323699421        0        
C4        C        0.46875        0.259259        0.06710228323699421        0        
C1        C        0.4375        0.351852        0.06710228323699421        0        
C2        C        0.46875        0.407408        0.06710228323699421        0        
C3        C        0.4375        0.42592500000000005        0.06710228323699421        0        
C4        C        0.46875        0.37037        0.06710228323699421        0        
C1        C        0.4375        0.46296300000000007        0.06710228323699421        0        
C2        C        0.46875        0.518519        0.06710228323699421        0        
C3        C        0.4375        0.537037        0.06710228323699421        0        
C4        C        0.46875        0.481481        0.06710228323699421        0        
C1        C        0.4375        0.574075        0.06710228323699421        0        
C2        C        0.46875        0.62963        0.06710228323699421        0        
C3        C        0.4375        0.648148        0.06710228323699421        0        
C4        C        0.46875        0.592592        0.06710228323699421        0        
C1        C        0.5        0.018519        0.06710228323699421        0        
C2        C        0.53125        0.074075        0.06710228323699421        0        
C3        C        0.5        0.092592        0.06710228323699421        0        
C4        C        0.53125        0.037037        0.06710228323699421        0        
C1        C        0.5        0.12963        0.06710228323699421        0        
C2        C        0.53125        0.185185        0.06710228323699421        0        
C3        C        0.5        0.203703        0.06710228323699421        0        
C4        C        0.53125        0.148148        0.06710228323699421        0        
C1        C        0.5        0.24074099999999998        0.06710228323699421        0        
C2        C        0.53125        0.296297        0.06710228323699421        0        
C3        C        0.5        0.314815        0.06710228323699421        0        
C4        C        0.53125        0.259259        0.06710228323699421        0        
C1        C        0.5        0.351852        0.06710228323699421        0        
C2        C        0.53125        0.407408        0.06710228323699421        0        
C3        C        0.5        0.42592500000000005        0.06710228323699421        0        
C4        C        0.53125        0.37037        0.06710228323699421        0        
C1        C        0.5        0.46296300000000007        0.06710228323699421        0        
C2        C        0.53125        0.518519        0.06710228323699421        0        
C3        C        0.5        0.537037        0.06710228323699421        0        
C4        C        0.53125        0.481481        0.06710228323699421        0        
C1        C        0.5        0.574075        0.06710228323699421        0        
C2        C        0.53125        0.62963        0.06710228323699421        0        
C3        C        0.5        0.648148        0.06710228323699421        0        
C4        C        0.53125        0.592592        0.06710228323699421        0        
C1        C        0.5625        0.018519        0.06710228323699421        0        
C2        C        0.59375        0.074075        0.06710228323699421        0        
C3        C        0.5625        0.092592        0.06710228323699421        0        
C4        C        0.59375        0.037037        0.06710228323699421        0        
C1        C        0.5625        0.12963        0.06710228323699421        0        
C2        C        0.59375        0.185185        0.06710228323699421        0        
C3        C        0.5625        0.203703        0.06710228323699421        0        
C4        C        0.59375        0.148148        0.06710228323699421        0        
C1        C        0.5625        0.24074099999999998        0.06710228323699421        0        
C2        C        0.59375        0.296297        0.06710228323699421        0        
C3        C        0.5625        0.314815        0.06710228323699421        0        
C4        C        0.59375        0.259259        0.06710228323699421        0        
C1        C        0.5625        0.351852        0.06710228323699421        0        
C2        C        0.59375        0.407408        0.06710228323699421        0        
C3        C        0.5625        0.42592500000000005        0.06710228323699421        0        
C4        C        0.59375        0.37037        0.06710228323699421        0        
C1        C        0.5625        0.46296300000000007        0.06710228323699421        0        
C2        C        0.59375        0.518519        0.06710228323699421        0        
C3        C        0.5625        0.537037        0.06710228323699421        0        
C4        C        0.59375        0.481481        0.06710228323699421        0        
C1        C        0.5625        0.574075        0.06710228323699421        0        
C2        C        0.59375        0.62963        0.06710228323699421        0        
C3        C        0.5625        0.648148        0.06710228323699421        0        
C4        C        0.59375        0.592592        0.06710228323699421        0        
C1        C        0.625        0.018519        0.06710228323699421        0        
C2        C        0.65625        0.074075        0.06710228323699421        0        
C3        C        0.625        0.092592        0.06710228323699421        0        
C4        C        0.65625        0.037037        0.06710228323699421        0        
C1        C        0.625        0.12963        0.06710228323699421        0        
C2        C        0.65625        0.185185        0.06710228323699421        0        
C3        C        0.625        0.203703        0.06710228323699421        0        
C4        C        0.65625        0.148148        0.06710228323699421        0        
C1        C        0.625        0.24074099999999998        0.06710228323699421        0        
C2        C        0.65625        0.296297        0.06710228323699421        0        
C3        C        0.625        0.314815        0.06710228323699421        0        
C4        C        0.65625        0.259259        0.06710228323699421        0        
C1        C        0.625        0.351852        0.06710228323699421        0        
C2        C        0.65625        0.407408        0.06710228323699421        0        
C3        C        0.625        0.42592500000000005        0.06710228323699421        0        
C4        C        0.65625        0.37037        0.06710228323699421        0        
C1        C        0.625        0.46296300000000007        0.06710228323699421        0        
C2        C        0.65625        0.518519        0.06710228323699421        0        
C3        C        0.625        0.537037        0.06710228323699421        0        
C4        C        0.65625        0.481481        0.06710228323699421        0        
C1        C        0.625        0.574075        0.06710228323699421        0        
C2        C        0.65625        0.62963        0.06710228323699421        0        
C3        C        0.625        0.648148        0.06710228323699421        0        
C4        C        0.65625        0.592592        0.06710228323699421        0        
C1        C        0.6875        0.018519        0.06710228323699421        0        
C2        C        0.71875        0.074075        0.06710228323699421        0        
C3        C        0.6875        0.092592        0.06710228323699421        0        
C4        C        0.71875        0.037037        0.06710228323699421        0        
C1        C        0.6875        0.12963        0.06710228323699421        0        
C2        C        0.71875        0.185185        0.06710228323699421        0        
C3        C        0.6875        0.203703        0.06710228323699421        0        
C4        C        0.71875        0.148148        0.06710228323699421        0        
C1        C        0.6875        0.24074099999999998        0.06710228323699421        0        
C2        C        0.71875        0.296297        0.06710228323699421        0        
C3        C        0.6875        0.314815        0.06710228323699421        0        
C4        C        0.71875        0.259259        0.06710228323699421        0        
C1        C        0.6875        0.351852        0.06710228323699421        0        
C2        C        0.71875        0.407408        0.06710228323699421        0        
C3        C        0.6875        0.42592500000000005        0.06710228323699421        0        
C4        C        0.71875        0.37037        0.06710228323699421        0        
C1        C        0.6875        0.46296300000000007        0.06710228323699421        0        
C2        C        0.71875        0.518519        0.06710228323699421        0        
C3        C        0.6875        0.537037        0.06710228323699421        0        
C4        C        0.71875        0.481481        0.06710228323699421        0        
C1        C        0.6875        0.574075        0.06710228323699421        0        
C2        C        0.71875        0.62963        0.06710228323699421        0        
C3        C        0.6875        0.648148        0.06710228323699421        0        
C4        C        0.71875        0.592592        0.06710228323699421        0        
C_FG        C        0.75        0.018519        0.06710228323699421        0.08        
C2        C        0.78125        0.074075        0.06710228323699421        0        
C3        C        0.75        0.092592        0.06710228323699421        0        
C4        C        0.78125        0.037037        0.06710228323699421        0        
C1        C        0.75        0.12963        0.06710228323699421        0        
C2        C        0.78125        0.185185        0.06710228323699421        0        
C_FG        C        0.75        0.203703        0.06710228323699421        0.08        
C4        C        0.78125        0.148148        0.06710228323699421        0        
C1        C        0.75        0.24074099999999998        0.06710228323699421        0        
C2        C        0.78125        0.296297        0.06710228323699421        0        
C3        C        0.75        0.314815        0.06710228323699421        0        
C4        C        0.78125        0.259259        0.06710228323699421        0        
C_FG        C        0.75        0.351852        0.06710228323699421        0.08        
C2        C        0.78125        0.407408        0.06710228323699421        0        
C3        C        0.75        0.42592500000000005        0.06710228323699421        0        
C4        C        0.78125        0.37037        0.06710228323699421        0        
C1        C        0.75        0.46296300000000007        0.06710228323699421        0        
C2        C        0.78125        0.518519        0.06710228323699421        0        
C_FG        C        0.75        0.537037        0.06710228323699421        0.08        
C4        C        0.78125        0.481481        0.06710228323699421        0        
C1        C        0.75        0.574075        0.06710228323699421        0        
C2        C        0.78125        0.62963        0.06710228323699421        0        
C3        C        0.75        0.648148        0.06710228323699421        0        
C4        C        0.78125        0.592592        0.06710228323699421        0        
C1        C        0.8125        0.018519        0.06710228323699421        0        
C2        C        0.84375        0.074075        0.06710228323699421        0        
C3        C        0.8125        0.092592        0.06710228323699421        0        
C4        C        0.84375        0.037037        0.06710228323699421        0        
C1        C        0.8125        0.12963        0.06710228323699421        0        
C2        C        0.84375        0.185185        0.06710228323699421        0        
C3        C        0.8125        0.203703        0.06710228323699421        0        
C4        C        0.84375        0.148148        0.06710228323699421        0        
C1        C        0.8125        0.24074099999999998        0.06710228323699421        0        
C2        C        0.84375        0.296297        0.06710228323699421        0        
C3        C        0.8125        0.314815        0.06710228323699421        0        
C4        C        0.84375        0.259259        0.06710228323699421        0        
C1        C        0.8125        0.351852        0.06710228323699421        0        
C2        C        0.84375        0.407408        0.06710228323699421        0        
C3        C        0.8125        0.42592500000000005        0.06710228323699421        0        
C4        C        0.84375        0.37037        0.06710228323699421        0        
C1        C        0.8125        0.46296300000000007        0.06710228323699421        0        
C2        C        0.84375        0.518519        0.06710228323699421        0        
C3        C        0.8125        0.537037        0.06710228323699421        0        
C4        C        0.84375        0.481481        0.06710228323699421        0        
C1        C        0.8125        0.574075        0.06710228323699421        0        
C2        C        0.84375        0.62963        0.06710228323699421        0        
C3        C        0.8125        0.648148        0.06710228323699421        0        
C4        C        0.84375        0.592592        0.06710228323699421        0        
C1        C        0.875        0.018519        0.06710228323699421        0        
C2        C        0.9062500000000001        0.074075        0.06710228323699421        0        
C3        C        0.875        0.092592        0.06710228323699421        0        
C4        C        0.9062500000000001        0.037037        0.06710228323699421        0        
C1        C        0.875        0.12963        0.06710228323699421        0        
C2        C        0.9062500000000001        0.185185        0.06710228323699421        0        
C3        C        0.875        0.203703        0.06710228323699421        0        
C4        C        0.9062500000000001        0.148148        0.06710228323699421        0        
C1        C        0.875        0.24074099999999998        0.06710228323699421        0        
C2        C        0.9062500000000001        0.296297        0.06710228323699421        0        
C3        C        0.875        0.314815        0.06710228323699421        0        
C4        C        0.9062500000000001        0.259259        0.06710228323699421        0        
C1        C        0.875        0.351852        0.06710228323699421        0        
C2        C        0.9062500000000001        0.407408        0.06710228323699421        0        
C3        C        0.875        0.42592500000000005        0.06710228323699421        0        
C4        C        0.9062500000000001        0.37037        0.06710228323699421        0        
C1        C        0.875        0.46296300000000007        0.06710228323699421        0        
C2        C        0.9062500000000001        0.518519        0.06710228323699421        0        
C3        C        0.875        0.537037        0.06710228323699421        0        
C4        C        0.9062500000000001        0.481481        0.06710228323699421        0        
C1        C        0.875        0.574075        0.06710228323699421        0        
C2        C        0.9062500000000001        0.62963        0.06710228323699421        0        
C3        C        0.875        0.648148        0.06710228323699421        0        
C4        C        0.9062500000000001        0.592592        0.06710228323699421        0        
C1        C        0.9375        0.018519        0.06710228323699421        0        
C2        C        0.9687500000000001        0.074075        0.06710228323699421        0        
C3        C        0.9375        0.092592        0.06710228323699421        0        
C4        C        0.9687500000000001        0.037037        0.06710228323699421        0        
C1        C        0.9375        0.12963        0.06710228323699421        0        
C2        C        0.9687500000000001        0.185185        0.06710228323699421        0        
C3        C        0.9375        0.203703        0.06710228323699421        0        
C4        C        0.9687500000000001        0.148148        0.06710228323699421        0        
C1        C        0.9375        0.24074099999999998        0.06710228323699421        0        
C2        C        0.9687500000000001        0.296297        0.06710228323699421        0        
C3        C        0.9375        0.314815        0.06710228323699421        0        
C4        C        0.9687500000000001        0.259259        0.06710228323699421        0        
C1        C        0.9375        0.351852        0.06710228323699421        0        
C2        C        0.9687500000000001        0.407408        0.06710228323699421        0        
C3        C        0.9375        0.42592500000000005        0.06710228323699421        0        
C4        C        0.9687500000000001        0.37037        0.06710228323699421        0        
C1        C        0.9375        0.46296300000000007        0.06710228323699421        0        
C2        C        0.9687500000000001        0.518519        0.06710228323699421        0        
C3        C        0.9375        0.537037        0.06710228323699421        0        
C4        C        0.9687500000000001        0.481481        0.06710228323699421        0        
C1        C        0.9375        0.574075        0.06710228323699421        0        
C2        C        0.9687500000000001        0.62963        0.06710228323699421        0        
C3        C        0.9375        0.648148        0.06710228323699421        0        
C4        C        0.9687500000000001        0.592592        0.06710228323699421        0        
C_FG        C        0.0        0.685186        0.06710228323699421        0.08        
C1        C        0.0625        0.685186        0.06710228323699421        0        
C1        C        0.125        0.685186        0.06710228323699421        0        
C1        C        0.1875        0.685186        0.06710228323699421        0        
C_FG        C        0.25        0.685186        0.06710228323699421        0.08        
C1        C        0.3125        0.685186        0.06710228323699421        0        
C1        C        0.375        0.685186        0.06710228323699421        0        
C1        C        0.4375        0.685186        0.06710228323699421        0        
C1        C        0.5        0.685186        0.06710228323699421        0        
C1        C        0.5625        0.685186        0.06710228323699421        0        
C1        C        0.625        0.685186        0.06710228323699421        0        
C1        C        0.6875        0.685186        0.06710228323699421        0        
C_FG        C        0.75        0.685186        0.06710228323699421        0.08        
C1        C        0.8125        0.685186        0.06710228323699421        0        
C1        C        0.875        0.685186        0.06710228323699421        0        
C1        C        0.9375        0.685186        0.06710228323699421        0        
C2        C        0.03125        0.740741        0.06710228323699421        0        
C2        C        0.09375        0.740741        0.06710228323699421        0        
C2        C        0.15625        0.740741        0.06710228323699421        0        
C2        C        0.21875        0.740741        0.06710228323699421        0        
C2        C        0.28125        0.740741        0.06710228323699421        0        
C2        C        0.34375        0.740741        0.06710228323699421        0        
C2        C        0.40625        0.740741        0.06710228323699421        0        
C2        C        0.46875        0.740741        0.06710228323699421        0        
C2        C        0.53125        0.740741        0.06710228323699421        0        
C2        C        0.59375        0.740741        0.06710228323699421        0        
C2        C        0.65625        0.740741        0.06710228323699421        0        
C2        C        0.71875        0.740741        0.06710228323699421        0        
C2        C        0.78125        0.740741        0.06710228323699421        0        
C2        C        0.84375        0.740741        0.06710228323699421        0        
C2        C        0.9062500000000001        0.740741        0.06710228323699421        0        
C2        C        0.9687500000000001        0.740741        0.06710228323699421        0        
C3        C        0.0        0.759259        0.06710228323699421        0        
C3        C        0.0625        0.759259        0.06710228323699421        0        
C3        C        0.125        0.759259        0.06710228323699421        0        
C3        C        0.1875        0.759259        0.06710228323699421        0        
C3        C        0.25        0.759259        0.06710228323699421        0        
C3        C        0.3125        0.759259        0.06710228323699421        0        
C3        C        0.375        0.759259        0.06710228323699421        0        
C3        C        0.4375        0.759259        0.06710228323699421        0        
C3        C        0.5        0.759259        0.06710228323699421        0        
C3        C        0.5625        0.759259        0.06710228323699421        0        
C3        C        0.625        0.759259        0.06710228323699421        0        
C3        C        0.6875        0.759259        0.06710228323699421        0        
C3        C        0.75        0.759259        0.06710228323699421        0        
C3        C        0.8125        0.759259        0.06710228323699421        0        
C3        C        0.875        0.759259        0.06710228323699421        0        
C3        C        0.9375        0.759259        0.06710228323699421        0        
C4        C        0.03125        0.703703        0.06710228323699421        0        
C4        C        0.09375        0.703703        0.06710228323699421        0        
C4        C        0.15625        0.703703        0.06710228323699421        0        
C4        C        0.21875        0.703703        0.06710228323699421        0        
C4        C        0.28125        0.703703        0.06710228323699421        0        
C4        C        0.34375        0.703703        0.06710228323699421        0        
C4        C        0.40625        0.703703        0.06710228323699421        0        
C4        C        0.46875        0.703703        0.06710228323699421        0        
C4        C        0.53125        0.703703        0.06710228323699421        0        
C4        C        0.59375        0.703703        0.06710228323699421        0        
C4        C        0.65625        0.703703        0.06710228323699421        0        
C4        C        0.71875        0.703703        0.06710228323699421        0        
C4        C        0.78125        0.703703        0.06710228323699421        0        
C4        C        0.84375        0.703703        0.06710228323699421        0        
C4        C        0.9062500000000001        0.703703        0.06710228323699421        0        
C4        C        0.9687500000000001        0.703703        0.06710228323699421        0        
C1        C        0.0        0.796297        0.06710228323699421        0        
C1        C        0.0625        0.796297        0.06710228323699421        0        
C1        C        0.125        0.796297        0.06710228323699421        0        
C1        C        0.1875        0.796297        0.06710228323699421        0        
C1        C        0.25        0.796297        0.06710228323699421        0        
C1        C        0.3125        0.796297        0.06710228323699421        0        
C1        C        0.375        0.796297        0.06710228323699421        0        
C1        C        0.4375        0.796297        0.06710228323699421        0        
C1        C        0.5        0.796297        0.06710228323699421        0        
C1        C        0.5625        0.796297        0.06710228323699421        0        
C1        C        0.625        0.796297        0.06710228323699421        0        
C1        C        0.6875        0.796297        0.06710228323699421        0        
C1        C        0.75        0.796297        0.06710228323699421        0        
C1        C        0.8125        0.796297        0.06710228323699421        0        
C1        C        0.875        0.796297        0.06710228323699421        0        
C1        C        0.9375        0.796297        0.06710228323699421        0        
C2        C        0.03125        0.851852        0.06710228323699421        0        
C2        C        0.09375        0.851852        0.06710228323699421        0        
C2        C        0.15625        0.851852        0.06710228323699421        0        
C2        C        0.21875        0.851852        0.06710228323699421        0        
C2        C        0.28125        0.851852        0.06710228323699421        0        
C2        C        0.34375        0.851852        0.06710228323699421        0        
C2        C        0.40625        0.851852        0.06710228323699421        0        
C2        C        0.46875        0.851852        0.06710228323699421        0        
C2        C        0.53125        0.851852        0.06710228323699421        0        
C2        C        0.59375        0.851852        0.06710228323699421        0        
C2        C        0.65625        0.851852        0.06710228323699421        0        
C2        C        0.71875        0.851852        0.06710228323699421        0        
C2        C        0.78125        0.851852        0.06710228323699421        0        
C2        C        0.84375        0.851852        0.06710228323699421        0        
C2        C        0.9062500000000001        0.851852        0.06710228323699421        0        
C2        C        0.9687500000000001        0.851852        0.06710228323699421        0        
C_FG        C        0.0        0.87037        0.06710228323699421        0.08        
C3        C        0.0625        0.87037        0.06710228323699421        0        
C3        C        0.125        0.87037        0.06710228323699421        0        
C3        C        0.1875        0.87037        0.06710228323699421        0        
C_FG        C        0.25        0.87037        0.06710228323699421        0.08        
C3        C        0.3125        0.87037        0.06710228323699421        0        
C3        C        0.375        0.87037        0.06710228323699421        0        
C3        C        0.4375        0.87037        0.06710228323699421        0        
C3        C        0.5        0.87037        0.06710228323699421        0        
C3        C        0.5625        0.87037        0.06710228323699421        0        
C3        C        0.625        0.87037        0.06710228323699421        0        
C3        C        0.6875        0.87037        0.06710228323699421        0        
C_FG        C        0.75        0.87037        0.06710228323699421        0.08        
C3        C        0.8125        0.87037        0.06710228323699421        0        
C3        C        0.875        0.87037        0.06710228323699421        0        
C3        C        0.9375        0.87037        0.06710228323699421        0        
C4        C        0.03125        0.814814        0.06710228323699421        0        
C4        C        0.09375        0.814814        0.06710228323699421        0        
C4        C        0.15625        0.814814        0.06710228323699421        0        
C4        C        0.21875        0.814814        0.06710228323699421        0        
C4        C        0.28125        0.814814        0.06710228323699421        0        
C4        C        0.34375        0.814814        0.06710228323699421        0        
C4        C        0.40625        0.814814        0.06710228323699421        0        
C4        C        0.46875        0.814814        0.06710228323699421        0        
C4        C        0.53125        0.814814        0.06710228323699421        0        
C4        C        0.59375        0.814814        0.06710228323699421        0        
C4        C        0.65625        0.814814        0.06710228323699421        0        
C4        C        0.71875        0.814814        0.06710228323699421        0        
C4        C        0.78125        0.814814        0.06710228323699421        0        
C4        C        0.84375        0.814814        0.06710228323699421        0        
C4        C        0.9062500000000001        0.814814        0.06710228323699421        0        
C4        C        0.9687500000000001        0.814814        0.06710228323699421        0        
C1        C        0.0        0.907408        0.06710228323699421        0        
C1        C        0.0625        0.907408        0.06710228323699421        0        
C1        C        0.125        0.907408        0.06710228323699421        0        
C1        C        0.1875        0.907408        0.06710228323699421        0        
C1        C        0.25        0.907408        0.06710228323699421        0        
C1        C        0.3125        0.907408        0.06710228323699421        0        
C1        C        0.375        0.907408        0.06710228323699421        0        
C1        C        0.4375        0.907408        0.06710228323699421        0        
C1        C        0.5        0.907408        0.06710228323699421        0        
C1        C        0.5625        0.907408        0.06710228323699421        0        
C1        C        0.625        0.907408        0.06710228323699421        0        
C1        C        0.6875        0.907408        0.06710228323699421        0        
C1        C        0.75        0.907408        0.06710228323699421        0        
C1        C        0.8125        0.907408        0.06710228323699421        0        
C1        C        0.875        0.907408        0.06710228323699421        0        
C1        C        0.9375        0.907408        0.06710228323699421        0        
C2        C        0.03125        0.962963        0.06710228323699421        0        
C2        C        0.09375        0.962963        0.06710228323699421        0        
C2        C        0.15625        0.962963        0.06710228323699421        0        
C2        C        0.21875        0.962963        0.06710228323699421        0        
C2        C        0.28125        0.962963        0.06710228323699421        0        
C2        C        0.34375        0.962963        0.06710228323699421        0        
C2        C        0.40625        0.962963        0.06710228323699421        0        
C2        C        0.46875        0.962963        0.06710228323699421        0        
C2        C        0.53125        0.962963        0.06710228323699421        0        
C2        C        0.59375        0.962963        0.06710228323699421        0        
C2        C        0.65625        0.962963        0.06710228323699421        0        
C2        C        0.71875        0.962963        0.06710228323699421        0        
C2        C        0.78125        0.962963        0.06710228323699421        0        
C2        C        0.84375        0.962963        0.06710228323699421        0        
C2        C        0.9062500000000001        0.962963        0.06710228323699421        0        
C2        C        0.9687500000000001        0.962963        0.06710228323699421        0        
C3        C        0.0        0.9814809999999999        0.06710228323699421        0        
C3        C        0.0625        0.9814809999999999        0.06710228323699421        0        
C3        C        0.125        0.9814809999999999        0.06710228323699421        0        
C3        C        0.1875        0.9814809999999999        0.06710228323699421        0        
C3        C        0.25        0.9814809999999999        0.06710228323699421        0        
C3        C        0.3125        0.9814809999999999        0.06710228323699421        0        
C3        C        0.375        0.9814809999999999        0.06710228323699421        0        
C3        C        0.4375        0.9814809999999999        0.06710228323699421        0        
C3        C        0.5        0.9814809999999999        0.06710228323699421        0        
C3        C        0.5625        0.9814809999999999        0.06710228323699421        0        
C3        C        0.625        0.9814809999999999        0.06710228323699421        0        
C3        C        0.6875        0.9814809999999999        0.06710228323699421        0        
C3        C        0.75        0.9814809999999999        0.06710228323699421        0        
C3        C        0.8125        0.9814809999999999        0.06710228323699421        0        
C3        C        0.875        0.9814809999999999        0.06710228323699421        0        
C3        C        0.9375        0.9814809999999999        0.06710228323699421        0        
C4        C        0.03125        0.925925        0.06710228323699421        0        
C4        C        0.09375        0.925925        0.06710228323699421        0        
C4        C        0.15625        0.925925        0.06710228323699421        0        
C4        C        0.21875        0.925925        0.06710228323699421        0        
C4        C        0.28125        0.925925        0.06710228323699421        0        
C4        C        0.34375        0.925925        0.06710228323699421        0        
C4        C        0.40625        0.925925        0.06710228323699421        0        
C4        C        0.46875        0.925925        0.06710228323699421        0        
C4        C        0.53125        0.925925        0.06710228323699421        0        
C4        C        0.59375        0.925925        0.06710228323699421        0        
C4        C        0.65625        0.925925        0.06710228323699421        0        
C4        C        0.71875        0.925925        0.06710228323699421        0        
C4        C        0.78125        0.925925        0.06710228323699421        0        
C4        C        0.84375        0.925925        0.06710228323699421        0        
C4        C        0.9062500000000001        0.925925        0.06710228323699421        0        
C4        C        0.9687500000000001        0.925925        0.06710228323699421        0        
C1        C        0.0        0.018519        0.16392328323699423        0        
C2        C        0.03125        0.074075        0.16392328323699423        0        
C3        C        0.0        0.092592        0.16392328323699423        0        
C4        C        0.03125        0.037037        0.16392328323699423        0        
C1        C        0.0        0.12963        0.16392328323699423        0        
C2        C        0.03125        0.185185        0.16392328323699423        0        
C3        C        0.0        0.203703        0.16392328323699423        0        
C4        C        0.03125        0.148148        0.16392328323699423        0        
C1        C        0.0        0.24074099999999998        0.16392328323699423        0        
C2        C        0.03125        0.296297        0.16392328323699423        0        
C3        C        0.0        0.314815        0.16392328323699423        0        
C4        C        0.03125        0.259259        0.16392328323699423        0        
C1        C        0.0        0.351852        0.16392328323699423        0        
C2        C        0.03125        0.407408        0.16392328323699423        0        
C3        C        0.0        0.42592500000000005        0.16392328323699423        0        
C4        C        0.03125        0.37037        0.16392328323699423        0        
C1        C        0.0        0.46296300000000007        0.16392328323699423        0        
C2        C        0.03125        0.518519        0.16392328323699423        0        
C3        C        0.0        0.537037        0.16392328323699423        0        
C4        C        0.03125        0.481481        0.16392328323699423        0        
C1        C        0.0        0.574075        0.16392328323699423        0        
C2        C        0.03125        0.62963        0.16392328323699423        0        
C3        C        0.0        0.648148        0.16392328323699423        0        
C4        C        0.03125        0.592592        0.16392328323699423        0        
C1        C        0.0625        0.018519        0.16392328323699423        0        
C2        C        0.09375        0.074075        0.16392328323699423        0        
C3        C        0.0625        0.092592        0.16392328323699423        0        
C4        C        0.09375        0.037037        0.16392328323699423        0        
C1        C        0.0625        0.12963        0.16392328323699423        0        
C2        C        0.09375        0.185185        0.16392328323699423        0        
C3        C        0.0625        0.203703        0.16392328323699423        0        
C4        C        0.09375        0.148148        0.16392328323699423        0        
C1        C        0.0625        0.24074099999999998        0.16392328323699423        0        
C2        C        0.09375        0.296297        0.16392328323699423        0        
C3        C        0.0625        0.314815        0.16392328323699423        0        
C4        C        0.09375        0.259259        0.16392328323699423        0        
C1        C        0.0625        0.351852        0.16392328323699423        0        
C2        C        0.09375        0.407408        0.16392328323699423        0        
C3        C        0.0625        0.42592500000000005        0.16392328323699423        0        
C4        C        0.09375        0.37037        0.16392328323699423        0        
C1        C        0.0625        0.46296300000000007        0.16392328323699423        0        
C2        C        0.09375        0.518519        0.16392328323699423        0        
C3        C        0.0625        0.537037        0.16392328323699423        0        
C4        C        0.09375        0.481481        0.16392328323699423        0        
C1        C        0.0625        0.574075        0.16392328323699423        0        
C2        C        0.09375        0.62963        0.16392328323699423        0        
C3        C        0.0625        0.648148        0.16392328323699423        0        
C4        C        0.09375        0.592592        0.16392328323699423        0        
C1        C        0.125        0.018519        0.16392328323699423        0        
C2        C        0.15625        0.074075        0.16392328323699423        0        
C3        C        0.125        0.092592        0.16392328323699423        0        
C4        C        0.15625        0.037037        0.16392328323699423        0        
C1        C        0.125        0.12963        0.16392328323699423        0        
C2        C        0.15625        0.185185        0.16392328323699423        0        
C3        C        0.125        0.203703        0.16392328323699423        0        
C4        C        0.15625        0.148148        0.16392328323699423        0        
C1        C        0.125        0.24074099999999998        0.16392328323699423        0        
C2        C        0.15625        0.296297        0.16392328323699423        0        
C3        C        0.125        0.314815        0.16392328323699423        0        
C4        C        0.15625        0.259259        0.16392328323699423        0        
C1        C        0.125        0.351852        0.16392328323699423        0        
C2        C        0.15625        0.407408        0.16392328323699423        0        
C3        C        0.125        0.42592500000000005        0.16392328323699423        0        
C4        C        0.15625        0.37037        0.16392328323699423        0        
C1        C        0.125        0.46296300000000007        0.16392328323699423        0        
C2        C        0.15625        0.518519        0.16392328323699423        0        
C3        C        0.125        0.537037        0.16392328323699423        0        
C4        C        0.15625        0.481481        0.16392328323699423        0        
C1        C        0.125        0.574075        0.16392328323699423        0        
C2        C        0.15625        0.62963        0.16392328323699423        0        
C3        C        0.125        0.648148        0.16392328323699423        0        
C4        C        0.15625        0.592592        0.16392328323699423        0        
C1        C        0.1875        0.018519        0.16392328323699423        0        
C2        C        0.21875        0.074075        0.16392328323699423        0        
C3        C        0.1875        0.092592        0.16392328323699423        0        
C4        C        0.21875        0.037037        0.16392328323699423        0        
C1        C        0.1875        0.12963        0.16392328323699423        0        
C2        C        0.21875        0.185185        0.16392328323699423        0        
C3        C        0.1875        0.203703        0.16392328323699423        0        
C4        C        0.21875        0.148148        0.16392328323699423        0        
C1        C        0.1875        0.24074099999999998        0.16392328323699423        0        
C2        C        0.21875        0.296297        0.16392328323699423        0        
C3        C        0.1875        0.314815        0.16392328323699423        0        
C4        C        0.21875        0.259259        0.16392328323699423        0        
C1        C        0.1875        0.351852        0.16392328323699423        0        
C2        C        0.21875        0.407408        0.16392328323699423        0        
C3        C        0.1875        0.42592500000000005        0.16392328323699423        0        
C4        C        0.21875        0.37037        0.16392328323699423        0        
C1        C        0.1875        0.46296300000000007        0.16392328323699423        0        
C2        C        0.21875        0.518519        0.16392328323699423        0        
C3        C        0.1875        0.537037        0.16392328323699423        0        
C4        C        0.21875        0.481481        0.16392328323699423        0        
C1        C        0.1875        0.574075        0.16392328323699423        0        
C2        C        0.21875        0.62963        0.16392328323699423        0        
C3        C        0.1875        0.648148        0.16392328323699423        0        
C4        C        0.21875        0.592592        0.16392328323699423        0        
C1        C        0.25        0.018519        0.16392328323699423        0        
C2        C        0.28125        0.074075        0.16392328323699423        0        
C3        C        0.25        0.092592        0.16392328323699423        0        
C4        C        0.28125        0.037037        0.16392328323699423        0        
C1        C        0.25        0.12963        0.16392328323699423        0        
C2        C        0.28125        0.185185        0.16392328323699423        0        
C3        C        0.25        0.203703        0.16392328323699423        0        
C4        C        0.28125        0.148148        0.16392328323699423        0        
C1        C        0.25        0.24074099999999998        0.16392328323699423        0        
C2        C        0.28125        0.296297        0.16392328323699423        0        
C3        C        0.25        0.314815        0.16392328323699423        0        
C4        C        0.28125        0.259259        0.16392328323699423        0        
C1        C        0.25        0.351852        0.16392328323699423        0        
C2        C        0.28125        0.407408        0.16392328323699423        0        
C3        C        0.25        0.42592500000000005        0.16392328323699423        0        
C4        C        0.28125        0.37037        0.16392328323699423        0        
C1        C        0.25        0.46296300000000007        0.16392328323699423        0        
C2        C        0.28125        0.518519        0.16392328323699423        0        
C3        C        0.25        0.537037        0.16392328323699423        0        
C4        C        0.28125        0.481481        0.16392328323699423        0        
C1        C        0.25        0.574075        0.16392328323699423        0        
C2        C        0.28125        0.62963        0.16392328323699423        0        
C3        C        0.25        0.648148        0.16392328323699423        0        
C4        C        0.28125        0.592592        0.16392328323699423        0        
C1        C        0.3125        0.018519        0.16392328323699423        0        
C2        C        0.34375        0.074075        0.16392328323699423        0        
C3        C        0.3125        0.092592        0.16392328323699423        0        
C4        C        0.34375        0.037037        0.16392328323699423        0        
C1        C        0.3125        0.12963        0.16392328323699423        0        
C2        C        0.34375        0.185185        0.16392328323699423        0        
C3        C        0.3125        0.203703        0.16392328323699423        0        
C4        C        0.34375        0.148148        0.16392328323699423        0        
C1        C        0.3125        0.24074099999999998        0.16392328323699423        0        
C2        C        0.34375        0.296297        0.16392328323699423        0        
C3        C        0.3125        0.314815        0.16392328323699423        0        
C4        C        0.34375        0.259259        0.16392328323699423        0        
C1        C        0.3125        0.351852        0.16392328323699423        0        
C2        C        0.34375        0.407408        0.16392328323699423        0        
C3        C        0.3125        0.42592500000000005        0.16392328323699423        0        
C4        C        0.34375        0.37037        0.16392328323699423        0        
C1        C        0.3125        0.46296300000000007        0.16392328323699423        0        
C2        C        0.34375        0.518519        0.16392328323699423        0        
C3        C        0.3125        0.537037        0.16392328323699423        0        
C4        C        0.34375        0.481481        0.16392328323699423        0        
C1        C        0.3125        0.574075        0.16392328323699423        0        
C2        C        0.34375        0.62963        0.16392328323699423        0        
C3        C        0.3125        0.648148        0.16392328323699423        0        
C4        C        0.34375        0.592592        0.16392328323699423        0        
C1        C        0.375        0.018519        0.16392328323699423        0        
C2        C        0.40625        0.074075        0.16392328323699423        0        
C3        C        0.375        0.092592        0.16392328323699423        0        
C4        C        0.40625        0.037037        0.16392328323699423        0        
C1        C        0.375        0.12963        0.16392328323699423        0        
C2        C        0.40625        0.185185        0.16392328323699423        0        
C3        C        0.375        0.203703        0.16392328323699423        0        
C4        C        0.40625        0.148148        0.16392328323699423        0        
C1        C        0.375        0.24074099999999998        0.16392328323699423        0        
C2        C        0.40625        0.296297        0.16392328323699423        0        
C3        C        0.375        0.314815        0.16392328323699423        0        
C4        C        0.40625        0.259259        0.16392328323699423        0        
C1        C        0.375        0.351852        0.16392328323699423        0        
C2        C        0.40625        0.407408        0.16392328323699423        0        
C3        C        0.375        0.42592500000000005        0.16392328323699423        0        
C4        C        0.40625        0.37037        0.16392328323699423        0        
C1        C        0.375        0.46296300000000007        0.16392328323699423        0        
C2        C        0.40625        0.518519        0.16392328323699423        0        
C3        C        0.375        0.537037        0.16392328323699423        0        
C4        C        0.40625        0.481481        0.16392328323699423        0        
C1        C        0.375        0.574075        0.16392328323699423        0        
C2        C        0.40625        0.62963        0.16392328323699423        0        
C3        C        0.375        0.648148        0.16392328323699423        0        
C4        C        0.40625        0.592592        0.16392328323699423        0        
C1        C        0.4375        0.018519        0.16392328323699423        0        
C2        C        0.46875        0.074075        0.16392328323699423        0        
C3        C        0.4375        0.092592        0.16392328323699423        0        
C4        C        0.46875        0.037037        0.16392328323699423        0        
C1        C        0.4375        0.12963        0.16392328323699423        0        
C2        C        0.46875        0.185185        0.16392328323699423        0        
C3        C        0.4375        0.203703        0.16392328323699423        0        
C4        C        0.46875        0.148148        0.16392328323699423        0        
C1        C        0.4375        0.24074099999999998        0.16392328323699423        0        
C2        C        0.46875        0.296297        0.16392328323699423        0        
C3        C        0.4375        0.314815        0.16392328323699423        0        
C4        C        0.46875        0.259259        0.16392328323699423        0        
C1        C        0.4375        0.351852        0.16392328323699423        0        
C2        C        0.46875        0.407408        0.16392328323699423        0        
C3        C        0.4375        0.42592500000000005        0.16392328323699423        0        
C4        C        0.46875        0.37037        0.16392328323699423        0        
C1        C        0.4375        0.46296300000000007        0.16392328323699423        0        
C2        C        0.46875        0.518519        0.16392328323699423        0        
C3        C        0.4375        0.537037        0.16392328323699423        0        
C4        C        0.46875        0.481481        0.16392328323699423        0        
C1        C        0.4375        0.574075        0.16392328323699423        0        
C2        C        0.46875        0.62963        0.16392328323699423        0        
C3        C        0.4375        0.648148        0.16392328323699423        0        
C4        C        0.46875        0.592592        0.16392328323699423        0        
C1        C        0.5        0.018519        0.16392328323699423        0        
C2        C        0.53125        0.074075        0.16392328323699423        0        
C3        C        0.5        0.092592        0.16392328323699423        0        
C4        C        0.53125        0.037037        0.16392328323699423        0        
C1        C        0.5        0.12963        0.16392328323699423        0        
C2        C        0.53125        0.185185        0.16392328323699423        0        
C3        C        0.5        0.203703        0.16392328323699423        0        
C4        C        0.53125        0.148148        0.16392328323699423        0        
C1        C        0.5        0.24074099999999998        0.16392328323699423        0        
C2        C        0.53125        0.296297        0.16392328323699423        0        
C3        C        0.5        0.314815        0.16392328323699423        0        
C4        C        0.53125        0.259259        0.16392328323699423        0        
C1        C        0.5        0.351852        0.16392328323699423        0        
C2        C        0.53125        0.407408        0.16392328323699423        0        
C3        C        0.5        0.42592500000000005        0.16392328323699423        0        
C4        C        0.53125        0.37037        0.16392328323699423        0        
C1        C        0.5        0.46296300000000007        0.16392328323699423        0        
C2        C        0.53125        0.518519        0.16392328323699423        0        
C3        C        0.5        0.537037        0.16392328323699423        0        
C4        C        0.53125        0.481481        0.16392328323699423        0        
C1        C        0.5        0.574075        0.16392328323699423        0        
C2        C        0.53125        0.62963        0.16392328323699423        0        
C3        C        0.5        0.648148        0.16392328323699423        0        
C4        C        0.53125        0.592592        0.16392328323699423        0        
C1        C        0.5625        0.018519        0.16392328323699423        0        
C2        C        0.59375        0.074075        0.16392328323699423        0        
C3        C        0.5625        0.092592        0.16392328323699423        0        
C4        C        0.59375        0.037037        0.16392328323699423        0        
C1        C        0.5625        0.12963        0.16392328323699423        0        
C2        C        0.59375        0.185185        0.16392328323699423        0        
C3        C        0.5625        0.203703        0.16392328323699423        0        
C4        C        0.59375        0.148148        0.16392328323699423        0        
C1        C        0.5625        0.24074099999999998        0.16392328323699423        0        
C2        C        0.59375        0.296297        0.16392328323699423        0        
C3        C        0.5625        0.314815        0.16392328323699423        0        
C4        C        0.59375        0.259259        0.16392328323699423        0        
C1        C        0.5625        0.351852        0.16392328323699423        0        
C2        C        0.59375        0.407408        0.16392328323699423        0        
C3        C        0.5625        0.42592500000000005        0.16392328323699423        0        
C4        C        0.59375        0.37037        0.16392328323699423        0        
C1        C        0.5625        0.46296300000000007        0.16392328323699423        0        
C2        C        0.59375        0.518519        0.16392328323699423        0        
C3        C        0.5625        0.537037        0.16392328323699423        0        
C4        C        0.59375        0.481481        0.16392328323699423        0        
C1        C        0.5625        0.574075        0.16392328323699423        0        
C2        C        0.59375        0.62963        0.16392328323699423        0        
C3        C        0.5625        0.648148        0.16392328323699423        0        
C4        C        0.59375        0.592592        0.16392328323699423        0        
C1        C        0.625        0.018519        0.16392328323699423        0        
C2        C        0.65625        0.074075        0.16392328323699423        0        
C3        C        0.625        0.092592        0.16392328323699423        0        
C4        C        0.65625        0.037037        0.16392328323699423        0        
C1        C        0.625        0.12963        0.16392328323699423        0        
C2        C        0.65625        0.185185        0.16392328323699423        0        
C3        C        0.625        0.203703        0.16392328323699423        0        
C4        C        0.65625        0.148148        0.16392328323699423        0        
C1        C        0.625        0.24074099999999998        0.16392328323699423        0        
C2        C        0.65625        0.296297        0.16392328323699423        0        
C3        C        0.625        0.314815        0.16392328323699423        0        
C4        C        0.65625        0.259259        0.16392328323699423        0        
C1        C        0.625        0.351852        0.16392328323699423        0        
C2        C        0.65625        0.407408        0.16392328323699423        0        
C3        C        0.625        0.42592500000000005        0.16392328323699423        0        
C4        C        0.65625        0.37037        0.16392328323699423        0        
C1        C        0.625        0.46296300000000007        0.16392328323699423        0        
C2        C        0.65625        0.518519        0.16392328323699423        0        
C3        C        0.625        0.537037        0.16392328323699423        0        
C4        C        0.65625        0.481481        0.16392328323699423        0        
C1        C        0.625        0.574075        0.16392328323699423        0        
C2        C        0.65625        0.62963        0.16392328323699423        0        
C3        C        0.625        0.648148        0.16392328323699423        0        
C4        C        0.65625        0.592592        0.16392328323699423        0        
C1        C        0.6875        0.018519        0.16392328323699423        0        
C2        C        0.71875        0.074075        0.16392328323699423        0        
C3        C        0.6875        0.092592        0.16392328323699423        0        
C4        C        0.71875        0.037037        0.16392328323699423        0        
C1        C        0.6875        0.12963        0.16392328323699423        0        
C2        C        0.71875        0.185185        0.16392328323699423        0        
C3        C        0.6875        0.203703        0.16392328323699423        0        
C4        C        0.71875        0.148148        0.16392328323699423        0        
C1        C        0.6875        0.24074099999999998        0.16392328323699423        0        
C2        C        0.71875        0.296297        0.16392328323699423        0        
C3        C        0.6875        0.314815        0.16392328323699423        0        
C4        C        0.71875        0.259259        0.16392328323699423        0        
C1        C        0.6875        0.351852        0.16392328323699423        0        
C2        C        0.71875        0.407408        0.16392328323699423        0        
C3        C        0.6875        0.42592500000000005        0.16392328323699423        0        
C4        C        0.71875        0.37037        0.16392328323699423        0        
C1        C        0.6875        0.46296300000000007        0.16392328323699423        0        
C2        C        0.71875        0.518519        0.16392328323699423        0        
C3        C        0.6875        0.537037        0.16392328323699423        0        
C4        C        0.71875        0.481481        0.16392328323699423        0        
C1        C        0.6875        0.574075        0.16392328323699423        0        
C2        C        0.71875        0.62963        0.16392328323699423        0        
C3        C        0.6875        0.648148        0.16392328323699423        0        
C4        C        0.71875        0.592592        0.16392328323699423        0        
C1        C        0.75        0.018519        0.16392328323699423        0        
C2        C        0.78125        0.074075        0.16392328323699423        0        
C3        C        0.75        0.092592        0.16392328323699423        0        
C4        C        0.78125        0.037037        0.16392328323699423        0        
C1        C        0.75        0.12963        0.16392328323699423        0        
C2        C        0.78125        0.185185        0.16392328323699423        0        
C3        C        0.75        0.203703        0.16392328323699423        0        
C4        C        0.78125        0.148148        0.16392328323699423        0        
C1        C        0.75        0.24074099999999998        0.16392328323699423        0        
C2        C        0.78125        0.296297        0.16392328323699423        0        
C3        C        0.75        0.314815        0.16392328323699423        0        
C4        C        0.78125        0.259259        0.16392328323699423        0        
C1        C        0.75        0.351852        0.16392328323699423        0        
C2        C        0.78125        0.407408        0.16392328323699423        0        
C3        C        0.75        0.42592500000000005        0.16392328323699423        0        
C4        C        0.78125        0.37037        0.16392328323699423        0        
C1        C        0.75        0.46296300000000007        0.16392328323699423        0        
C2        C        0.78125        0.518519        0.16392328323699423        0        
C3        C        0.75        0.537037        0.16392328323699423        0        
C4        C        0.78125        0.481481        0.16392328323699423        0        
C1        C        0.75        0.574075        0.16392328323699423        0        
C2        C        0.78125        0.62963        0.16392328323699423        0        
C3        C        0.75        0.648148        0.16392328323699423        0        
C4        C        0.78125        0.592592        0.16392328323699423        0        
C1        C        0.8125        0.018519        0.16392328323699423        0        
C2        C        0.84375        0.074075        0.16392328323699423        0        
C3        C        0.8125        0.092592        0.16392328323699423        0        
C4        C        0.84375        0.037037        0.16392328323699423        0        
C1        C        0.8125        0.12963        0.16392328323699423        0        
C2        C        0.84375        0.185185        0.16392328323699423        0        
C3        C        0.8125        0.203703        0.16392328323699423        0        
C4        C        0.84375        0.148148        0.16392328323699423        0        
C1        C        0.8125        0.24074099999999998        0.16392328323699423        0        
C2        C        0.84375        0.296297        0.16392328323699423        0        
C3        C        0.8125        0.314815        0.16392328323699423        0        
C4        C        0.84375        0.259259        0.16392328323699423        0        
C1        C        0.8125        0.351852        0.16392328323699423        0        
C2        C        0.84375        0.407408        0.16392328323699423        0        
C3        C        0.8125        0.42592500000000005        0.16392328323699423        0        
C4        C        0.84375        0.37037        0.16392328323699423        0        
C1        C        0.8125        0.46296300000000007        0.16392328323699423        0        
C2        C        0.84375        0.518519        0.16392328323699423        0        
C3        C        0.8125        0.537037        0.16392328323699423        0        
C4        C        0.84375        0.481481        0.16392328323699423        0        
C1        C        0.8125        0.574075        0.16392328323699423        0        
C2        C        0.84375        0.62963        0.16392328323699423        0        
C3        C        0.8125        0.648148        0.16392328323699423        0        
C4        C        0.84375        0.592592        0.16392328323699423        0        
C1        C        0.875        0.018519        0.16392328323699423        0        
C2        C        0.9062500000000001        0.074075        0.16392328323699423        0        
C3        C        0.875        0.092592        0.16392328323699423        0        
C4        C        0.9062500000000001        0.037037        0.16392328323699423        0        
C1        C        0.875        0.12963        0.16392328323699423        0        
C2        C        0.9062500000000001        0.185185        0.16392328323699423        0        
C3        C        0.875        0.203703        0.16392328323699423        0        
C4        C        0.9062500000000001        0.148148        0.16392328323699423        0        
C1        C        0.875        0.24074099999999998        0.16392328323699423        0        
C2        C        0.9062500000000001        0.296297        0.16392328323699423        0        
C3        C        0.875        0.314815        0.16392328323699423        0        
C4        C        0.9062500000000001        0.259259        0.16392328323699423        0        
C1        C        0.875        0.351852        0.16392328323699423        0        
C2        C        0.9062500000000001        0.407408        0.16392328323699423        0        
C3        C        0.875        0.42592500000000005        0.16392328323699423        0        
C4        C        0.9062500000000001        0.37037        0.16392328323699423        0        
C1        C        0.875        0.46296300000000007        0.16392328323699423        0        
C2        C        0.9062500000000001        0.518519        0.16392328323699423        0        
C3        C        0.875        0.537037        0.16392328323699423        0        
C4        C        0.9062500000000001        0.481481        0.16392328323699423        0        
C1        C        0.875        0.574075        0.16392328323699423        0        
C2        C        0.9062500000000001        0.62963        0.16392328323699423        0        
C3        C        0.875        0.648148        0.16392328323699423        0        
C4        C        0.9062500000000001        0.592592        0.16392328323699423        0        
C1        C        0.9375        0.018519        0.16392328323699423        0        
C2        C        0.9687500000000001        0.074075        0.16392328323699423        0        
C3        C        0.9375        0.092592        0.16392328323699423        0        
C4        C        0.9687500000000001        0.037037        0.16392328323699423        0        
C1        C        0.9375        0.12963        0.16392328323699423        0        
C2        C        0.9687500000000001        0.185185        0.16392328323699423        0        
C3        C        0.9375        0.203703        0.16392328323699423        0        
C4        C        0.9687500000000001        0.148148        0.16392328323699423        0        
C1        C        0.9375        0.24074099999999998        0.16392328323699423        0        
C2        C        0.9687500000000001        0.296297        0.16392328323699423        0        
C3        C        0.9375        0.314815        0.16392328323699423        0        
C4        C        0.9687500000000001        0.259259        0.16392328323699423        0        
C1        C        0.9375        0.351852        0.16392328323699423        0        
C2        C        0.9687500000000001        0.407408        0.16392328323699423        0        
C3        C        0.9375        0.42592500000000005        0.16392328323699423        0        
C4        C        0.9687500000000001        0.37037        0.16392328323699423        0        
C1        C        0.9375        0.46296300000000007        0.16392328323699423        0        
C2        C        0.9687500000000001        0.518519        0.16392328323699423        0        
C3        C        0.9375        0.537037        0.16392328323699423        0        
C4        C        0.9687500000000001        0.481481        0.16392328323699423        0        
C1        C        0.9375        0.574075        0.16392328323699423        0        
C2        C        0.9687500000000001        0.62963        0.16392328323699423        0        
C3        C        0.9375        0.648148        0.16392328323699423        0        
C4        C        0.9687500000000001        0.592592        0.16392328323699423        0        
C1        C        0.0        0.685186        0.16392328323699423        0        
C1        C        0.0625        0.685186        0.16392328323699423        0        
C1        C        0.125        0.685186        0.16392328323699423        0        
C1        C        0.1875        0.685186        0.16392328323699423        0        
C1        C        0.25        0.685186        0.16392328323699423        0        
C1        C        0.3125        0.685186        0.16392328323699423        0        
C1        C        0.375        0.685186        0.16392328323699423        0        
C1        C        0.4375        0.685186        0.16392328323699423        0        
C1        C        0.5        0.685186        0.16392328323699423        0        
C1        C        0.5625        0.685186        0.16392328323699423        0        
C1        C        0.625        0.685186        0.16392328323699423        0        
C1        C        0.6875        0.685186        0.16392328323699423        0        
C1        C        0.75        0.685186        0.16392328323699423        0        
C1        C        0.8125        0.685186        0.16392328323699423        0        
C1        C        0.875        0.685186        0.16392328323699423        0        
C1        C        0.9375        0.685186        0.16392328323699423        0        
C2        C        0.03125        0.740741        0.16392328323699423        0        
C2        C        0.09375        0.740741        0.16392328323699423        0        
C2        C        0.15625        0.740741        0.16392328323699423        0        
C2        C        0.21875        0.740741        0.16392328323699423        0        
C2        C        0.28125        0.740741        0.16392328323699423        0        
C2        C        0.34375        0.740741        0.16392328323699423        0        
C2        C        0.40625        0.740741        0.16392328323699423        0        
C2        C        0.46875        0.740741        0.16392328323699423        0        
C2        C        0.53125        0.740741        0.16392328323699423        0        
C2        C        0.59375        0.740741        0.16392328323699423        0        
C2        C        0.65625        0.740741        0.16392328323699423        0        
C2        C        0.71875        0.740741        0.16392328323699423        0        
C2        C        0.78125        0.740741        0.16392328323699423        0        
C2        C        0.84375        0.740741        0.16392328323699423        0        
C2        C        0.9062500000000001        0.740741        0.16392328323699423        0        
C2        C        0.9687500000000001        0.740741        0.16392328323699423        0        
C3        C        0.0        0.759259        0.16392328323699423        0        
C3        C        0.0625        0.759259        0.16392328323699423        0        
C3        C        0.125        0.759259        0.16392328323699423        0        
C3        C        0.1875        0.759259        0.16392328323699423        0        
C3        C        0.25        0.759259        0.16392328323699423        0        
C3        C        0.3125        0.759259        0.16392328323699423        0        
C3        C        0.375        0.759259        0.16392328323699423        0        
C3        C        0.4375        0.759259        0.16392328323699423        0        
C3        C        0.5        0.759259        0.16392328323699423        0        
C3        C        0.5625        0.759259        0.16392328323699423        0        
C3        C        0.625        0.759259        0.16392328323699423        0        
C3        C        0.6875        0.759259        0.16392328323699423        0        
C3        C        0.75        0.759259        0.16392328323699423        0        
C3        C        0.8125        0.759259        0.16392328323699423        0        
C3        C        0.875        0.759259        0.16392328323699423        0        
C3        C        0.9375        0.759259        0.16392328323699423        0        
C4        C        0.03125        0.703703        0.16392328323699423        0        
C4        C        0.09375        0.703703        0.16392328323699423        0        
C4        C        0.15625        0.703703        0.16392328323699423        0        
C4        C        0.21875        0.703703        0.16392328323699423        0        
C4        C        0.28125        0.703703        0.16392328323699423        0        
C4        C        0.34375        0.703703        0.16392328323699423        0        
C4        C        0.40625        0.703703        0.16392328323699423        0        
C4        C        0.46875        0.703703        0.16392328323699423        0        
C4        C        0.53125        0.703703        0.16392328323699423        0        
C4        C        0.59375        0.703703        0.16392328323699423        0        
C4        C        0.65625        0.703703        0.16392328323699423        0        
C4        C        0.71875        0.703703        0.16392328323699423        0        
C4        C        0.78125        0.703703        0.16392328323699423        0        
C4        C        0.84375        0.703703        0.16392328323699423        0        
C4        C        0.9062500000000001        0.703703        0.16392328323699423        0        
C4        C        0.9687500000000001        0.703703        0.16392328323699423        0        
C1        C        0.0        0.796297        0.16392328323699423        0        
C1        C        0.0625        0.796297        0.16392328323699423        0        
C1        C        0.125        0.796297        0.16392328323699423        0        
C1        C        0.1875        0.796297        0.16392328323699423        0        
C1        C        0.25        0.796297        0.16392328323699423        0        
C1        C        0.3125        0.796297        0.16392328323699423        0        
C1        C        0.375        0.796297        0.16392328323699423        0        
C1        C        0.4375        0.796297        0.16392328323699423        0        
C1        C        0.5        0.796297        0.16392328323699423        0        
C1        C        0.5625        0.796297        0.16392328323699423        0        
C1        C        0.625        0.796297        0.16392328323699423        0        
C1        C        0.6875        0.796297        0.16392328323699423        0        
C1        C        0.75        0.796297        0.16392328323699423        0        
C1        C        0.8125        0.796297        0.16392328323699423        0        
C1        C        0.875        0.796297        0.16392328323699423        0        
C1        C        0.9375        0.796297        0.16392328323699423        0        
C2        C        0.03125        0.851852        0.16392328323699423        0        
C2        C        0.09375        0.851852        0.16392328323699423        0        
C2        C        0.15625        0.851852        0.16392328323699423        0        
C2        C        0.21875        0.851852        0.16392328323699423        0        
C2        C        0.28125        0.851852        0.16392328323699423        0        
C2        C        0.34375        0.851852        0.16392328323699423        0        
C2        C        0.40625        0.851852        0.16392328323699423        0        
C2        C        0.46875        0.851852        0.16392328323699423        0        
C2        C        0.53125        0.851852        0.16392328323699423        0        
C2        C        0.59375        0.851852        0.16392328323699423        0        
C2        C        0.65625        0.851852        0.16392328323699423        0        
C2        C        0.71875        0.851852        0.16392328323699423        0        
C2        C        0.78125        0.851852        0.16392328323699423        0        
C2        C        0.84375        0.851852        0.16392328323699423        0        
C2        C        0.9062500000000001        0.851852        0.16392328323699423        0        
C2        C        0.9687500000000001        0.851852        0.16392328323699423        0        
C3        C        0.0        0.87037        0.16392328323699423        0        
C3        C        0.0625        0.87037        0.16392328323699423        0        
C3        C        0.125        0.87037        0.16392328323699423        0        
C3        C        0.1875        0.87037        0.16392328323699423        0        
C3        C        0.25        0.87037        0.16392328323699423        0        
C3        C        0.3125        0.87037        0.16392328323699423        0        
C3        C        0.375        0.87037        0.16392328323699423        0        
C3        C        0.4375        0.87037        0.16392328323699423        0        
C3        C        0.5        0.87037        0.16392328323699423        0        
C3        C        0.5625        0.87037        0.16392328323699423        0        
C3        C        0.625        0.87037        0.16392328323699423        0        
C3        C        0.6875        0.87037        0.16392328323699423        0        
C3        C        0.75        0.87037        0.16392328323699423        0        
C3        C        0.8125        0.87037        0.16392328323699423        0        
C3        C        0.875        0.87037        0.16392328323699423        0        
C3        C        0.9375        0.87037        0.16392328323699423        0        
C4        C        0.03125        0.814814        0.16392328323699423        0        
C4        C        0.09375        0.814814        0.16392328323699423        0        
C4        C        0.15625        0.814814        0.16392328323699423        0        
C4        C        0.21875        0.814814        0.16392328323699423        0        
C4        C        0.28125        0.814814        0.16392328323699423        0        
C4        C        0.34375        0.814814        0.16392328323699423        0        
C4        C        0.40625        0.814814        0.16392328323699423        0        
C4        C        0.46875        0.814814        0.16392328323699423        0        
C4        C        0.53125        0.814814        0.16392328323699423        0        
C4        C        0.59375        0.814814        0.16392328323699423        0        
C4        C        0.65625        0.814814        0.16392328323699423        0        
C4        C        0.71875        0.814814        0.16392328323699423        0        
C4        C        0.78125        0.814814        0.16392328323699423        0        
C4        C        0.84375        0.814814        0.16392328323699423        0        
C4        C        0.9062500000000001        0.814814        0.16392328323699423        0        
C4        C        0.9687500000000001        0.814814        0.16392328323699423        0        
C1        C        0.0        0.907408        0.16392328323699423        0        
C1        C        0.0625        0.907408        0.16392328323699423        0        
C1        C        0.125        0.907408        0.16392328323699423        0        
C1        C        0.1875        0.907408        0.16392328323699423        0        
C1        C        0.25        0.907408        0.16392328323699423        0        
C1        C        0.3125        0.907408        0.16392328323699423        0        
C1        C        0.375        0.907408        0.16392328323699423        0        
C1        C        0.4375        0.907408        0.16392328323699423        0        
C1        C        0.5        0.907408        0.16392328323699423        0        
C1        C        0.5625        0.907408        0.16392328323699423        0        
C1        C        0.625        0.907408        0.16392328323699423        0        
C1        C        0.6875        0.907408        0.16392328323699423        0        
C1        C        0.75        0.907408        0.16392328323699423        0        
C1        C        0.8125        0.907408        0.16392328323699423        0        
C1        C        0.875        0.907408        0.16392328323699423        0        
C1        C        0.9375        0.907408        0.16392328323699423        0        
C2        C        0.03125        0.962963        0.16392328323699423        0        
C2        C        0.09375        0.962963        0.16392328323699423        0        
C2        C        0.15625        0.962963        0.16392328323699423        0        
C2        C        0.21875        0.962963        0.16392328323699423        0        
C2        C        0.28125        0.962963        0.16392328323699423        0        
C2        C        0.34375        0.962963        0.16392328323699423        0        
C2        C        0.40625        0.962963        0.16392328323699423        0        
C2        C        0.46875        0.962963        0.16392328323699423        0        
C2        C        0.53125        0.962963        0.16392328323699423        0        
C2        C        0.59375        0.962963        0.16392328323699423        0        
C2        C        0.65625        0.962963        0.16392328323699423        0        
C2        C        0.71875        0.962963        0.16392328323699423        0        
C2        C        0.78125        0.962963        0.16392328323699423        0        
C2        C        0.84375        0.962963        0.16392328323699423        0        
C2        C        0.9062500000000001        0.962963        0.16392328323699423        0        
C2        C        0.9687500000000001        0.962963        0.16392328323699423        0        
C3        C        0.0        0.9814809999999999        0.16392328323699423        0        
C3        C        0.0625        0.9814809999999999        0.16392328323699423        0        
C3        C        0.125        0.9814809999999999        0.16392328323699423        0        
C3        C        0.1875        0.9814809999999999        0.16392328323699423        0        
C3        C        0.25        0.9814809999999999        0.16392328323699423        0        
C3        C        0.3125        0.9814809999999999        0.16392328323699423        0        
C3        C        0.375        0.9814809999999999        0.16392328323699423        0        
C3        C        0.4375        0.9814809999999999        0.16392328323699423        0        
C3        C        0.5        0.9814809999999999        0.16392328323699423        0        
C3        C        0.5625        0.9814809999999999        0.16392328323699423        0        
C3        C        0.625        0.9814809999999999        0.16392328323699423        0        
C3        C        0.6875        0.9814809999999999        0.16392328323699423        0        
C3        C        0.75        0.9814809999999999        0.16392328323699423        0        
C3        C        0.8125        0.9814809999999999        0.16392328323699423        0        
C3        C        0.875        0.9814809999999999        0.16392328323699423        0        
C3        C        0.9375        0.9814809999999999        0.16392328323699423        0        
C4        C        0.03125        0.925925        0.16392328323699423        0        
C4        C        0.09375        0.925925        0.16392328323699423        0        
C4        C        0.15625        0.925925        0.16392328323699423        0        
C4        C        0.21875        0.925925        0.16392328323699423        0        
C4        C        0.28125        0.925925        0.16392328323699423        0        
C4        C        0.34375        0.925925        0.16392328323699423        0        
C4        C        0.40625        0.925925        0.16392328323699423        0        
C4        C        0.46875        0.925925        0.16392328323699423        0        
C4        C        0.53125        0.925925        0.16392328323699423        0        
C4        C        0.59375        0.925925        0.16392328323699423        0        
C4        C        0.65625        0.925925        0.16392328323699423        0        
C4        C        0.71875        0.925925        0.16392328323699423        0        
C4        C        0.78125        0.925925        0.16392328323699423        0        
C4        C        0.84375        0.925925        0.16392328323699423        0        
C4        C        0.9062500000000001        0.925925        0.16392328323699423        0        
C4        C        0.9687500000000001        0.925925        0.16392328323699423        0        
C_FG        C        0.0        0.018519        0.2607442832369943        0.08        
C2        C        0.03125        0.074075        0.2607442832369943        0        
C3        C        0.0        0.092592        0.2607442832369943        0        
C4        C        0.03125        0.037037        0.2607442832369943        0        
C1        C        0.0        0.12963        0.2607442832369943        0        
C2        C        0.03125        0.185185        0.2607442832369943        0        
C_FG        C        0.0        0.203703        0.2607442832369943        0.08        
C4        C        0.03125        0.148148        0.2607442832369943        0        
C1        C        0.0        0.24074099999999998        0.2607442832369943        0        
C2        C        0.03125        0.296297        0.2607442832369943        0        
C3        C        0.0        0.314815        0.2607442832369943        0        
C4        C        0.03125        0.259259        0.2607442832369943        0        
C_FG        C        0.0        0.351852        0.2607442832369943        0.08        
C2        C        0.03125        0.407408        0.2607442832369943        0        
C3        C        0.0        0.42592500000000005        0.2607442832369943        0        
C4        C        0.03125        0.37037        0.2607442832369943        0        
C1        C        0.0        0.46296300000000007        0.2607442832369943        0        
C2        C        0.03125        0.518519        0.2607442832369943        0        
C_FG        C        0.0        0.537037        0.2607442832369943        0.08        
C4        C        0.03125        0.481481        0.2607442832369943        0        
C1        C        0.0        0.574075        0.2607442832369943        0        
C2        C        0.03125        0.62963        0.2607442832369943        0        
C3        C        0.0        0.648148        0.2607442832369943        0        
C4        C        0.03125        0.592592        0.2607442832369943        0        
C1        C        0.0625        0.018519        0.2607442832369943        0        
C2        C        0.09375        0.074075        0.2607442832369943        0        
C3        C        0.0625        0.092592        0.2607442832369943        0        
C4        C        0.09375        0.037037        0.2607442832369943        0        
C1        C        0.0625        0.12963        0.2607442832369943        0        
C2        C        0.09375        0.185185        0.2607442832369943        0        
C3        C        0.0625        0.203703        0.2607442832369943        0        
C4        C        0.09375        0.148148        0.2607442832369943        0        
C1        C        0.0625        0.24074099999999998        0.2607442832369943        0        
C2        C        0.09375        0.296297        0.2607442832369943        0        
C3        C        0.0625        0.314815        0.2607442832369943        0        
C4        C        0.09375        0.259259        0.2607442832369943        0        
C1        C        0.0625        0.351852        0.2607442832369943        0        
C2        C        0.09375        0.407408        0.2607442832369943        0        
C3        C        0.0625        0.42592500000000005        0.2607442832369943        0        
C4        C        0.09375        0.37037        0.2607442832369943        0        
C1        C        0.0625        0.46296300000000007        0.2607442832369943        0        
C2        C        0.09375        0.518519        0.2607442832369943        0        
C3        C        0.0625        0.537037        0.2607442832369943        0        
C4        C        0.09375        0.481481        0.2607442832369943        0        
C1        C        0.0625        0.574075        0.2607442832369943        0        
C2        C        0.09375        0.62963        0.2607442832369943        0        
C3        C        0.0625        0.648148        0.2607442832369943        0        
C4        C        0.09375        0.592592        0.2607442832369943        0        
C1        C        0.125        0.018519        0.2607442832369943        0        
C2        C        0.15625        0.074075        0.2607442832369943        0        
C3        C        0.125        0.092592        0.2607442832369943        0        
C4        C        0.15625        0.037037        0.2607442832369943        0        
C1        C        0.125        0.12963        0.2607442832369943        0        
C2        C        0.15625        0.185185        0.2607442832369943        0        
C3        C        0.125        0.203703        0.2607442832369943        0        
C4        C        0.15625        0.148148        0.2607442832369943        0        
C1        C        0.125        0.24074099999999998        0.2607442832369943        0        
C2        C        0.15625        0.296297        0.2607442832369943        0        
C3        C        0.125        0.314815        0.2607442832369943        0        
C4        C        0.15625        0.259259        0.2607442832369943        0        
C1        C        0.125        0.351852        0.2607442832369943        0        
C2        C        0.15625        0.407408        0.2607442832369943        0        
C3        C        0.125        0.42592500000000005        0.2607442832369943        0        
C4        C        0.15625        0.37037        0.2607442832369943        0        
C1        C        0.125        0.46296300000000007        0.2607442832369943        0        
C2        C        0.15625        0.518519        0.2607442832369943        0        
C3        C        0.125        0.537037        0.2607442832369943        0        
C4        C        0.15625        0.481481        0.2607442832369943        0        
C1        C        0.125        0.574075        0.2607442832369943        0        
C2        C        0.15625        0.62963        0.2607442832369943        0        
C3        C        0.125        0.648148        0.2607442832369943        0        
C4        C        0.15625        0.592592        0.2607442832369943        0        
C1        C        0.1875        0.018519        0.2607442832369943        0        
C2        C        0.21875        0.074075        0.2607442832369943        0        
C3        C        0.1875        0.092592        0.2607442832369943        0        
C4        C        0.21875        0.037037        0.2607442832369943        0        
C1        C        0.1875        0.12963        0.2607442832369943        0        
C2        C        0.21875        0.185185        0.2607442832369943        0        
C3        C        0.1875        0.203703        0.2607442832369943        0        
C4        C        0.21875        0.148148        0.2607442832369943        0        
C1        C        0.1875        0.24074099999999998        0.2607442832369943        0        
C2        C        0.21875        0.296297        0.2607442832369943        0        
C3        C        0.1875        0.314815        0.2607442832369943        0        
C4        C        0.21875        0.259259        0.2607442832369943        0        
C1        C        0.1875        0.351852        0.2607442832369943        0        
C2        C        0.21875        0.407408        0.2607442832369943        0        
C3        C        0.1875        0.42592500000000005        0.2607442832369943        0        
C4        C        0.21875        0.37037        0.2607442832369943        0        
C1        C        0.1875        0.46296300000000007        0.2607442832369943        0        
C2        C        0.21875        0.518519        0.2607442832369943        0        
C3        C        0.1875        0.537037        0.2607442832369943        0        
C4        C        0.21875        0.481481        0.2607442832369943        0        
C1        C        0.1875        0.574075        0.2607442832369943        0        
C2        C        0.21875        0.62963        0.2607442832369943        0        
C3        C        0.1875        0.648148        0.2607442832369943        0        
C4        C        0.21875        0.592592        0.2607442832369943        0        
C_FG        C        0.25        0.018519        0.2607442832369943        0.08        
C2        C        0.28125        0.074075        0.2607442832369943        0        
C3        C        0.25        0.092592        0.2607442832369943        0        
C4        C        0.28125        0.037037        0.2607442832369943        0        
C1        C        0.25        0.12963        0.2607442832369943        0        
C2        C        0.28125        0.185185        0.2607442832369943        0        
C_FG        C        0.25        0.203703        0.2607442832369943        0.08        
C4        C        0.28125        0.148148        0.2607442832369943        0        
C1        C        0.25        0.24074099999999998        0.2607442832369943        0        
C2        C        0.28125        0.296297        0.2607442832369943        0        
C3        C        0.25        0.314815        0.2607442832369943        0        
C4        C        0.28125        0.259259        0.2607442832369943        0        
C_FG        C        0.25        0.351852        0.2607442832369943        0.08        
C2        C        0.28125        0.407408        0.2607442832369943        0        
C3        C        0.25        0.42592500000000005        0.2607442832369943        0        
C4        C        0.28125        0.37037        0.2607442832369943        0        
C1        C        0.25        0.46296300000000007        0.2607442832369943        0        
C2        C        0.28125        0.518519        0.2607442832369943        0        
C_FG        C        0.25        0.537037        0.2607442832369943        0.08        
C4        C        0.28125        0.481481        0.2607442832369943        0        
C1        C        0.25        0.574075        0.2607442832369943        0        
C2        C        0.28125        0.62963        0.2607442832369943        0        
C3        C        0.25        0.648148        0.2607442832369943        0        
C4        C        0.28125        0.592592        0.2607442832369943        0        
C1        C        0.3125        0.018519        0.2607442832369943        0        
C2        C        0.34375        0.074075        0.2607442832369943        0        
C3        C        0.3125        0.092592        0.2607442832369943        0        
C4        C        0.34375        0.037037        0.2607442832369943        0        
C1        C        0.3125        0.12963        0.2607442832369943        0        
C2        C        0.34375        0.185185        0.2607442832369943        0        
C3        C        0.3125        0.203703        0.2607442832369943        0        
C4        C        0.34375        0.148148        0.2607442832369943        0        
C1        C        0.3125        0.24074099999999998        0.2607442832369943        0        
C2        C        0.34375        0.296297        0.2607442832369943        0        
C3        C        0.3125        0.314815        0.2607442832369943        0        
C4        C        0.34375        0.259259        0.2607442832369943        0        
C1        C        0.3125        0.351852        0.2607442832369943        0        
C2        C        0.34375        0.407408        0.2607442832369943        0        
C3        C        0.3125        0.42592500000000005        0.2607442832369943        0        
C4        C        0.34375        0.37037        0.2607442832369943        0        
C1        C        0.3125        0.46296300000000007        0.2607442832369943        0        
C2        C        0.34375        0.518519        0.2607442832369943        0        
C3        C        0.3125        0.537037        0.2607442832369943        0        
C4        C        0.34375        0.481481        0.2607442832369943        0        
C1        C        0.3125        0.574075        0.2607442832369943        0        
C2        C        0.34375        0.62963        0.2607442832369943        0        
C3        C        0.3125        0.648148        0.2607442832369943        0        
C4        C        0.34375        0.592592        0.2607442832369943        0        
C1        C        0.375        0.018519        0.2607442832369943        0        
C2        C        0.40625        0.074075        0.2607442832369943        0        
C3        C        0.375        0.092592        0.2607442832369943        0        
C4        C        0.40625        0.037037        0.2607442832369943        0        
C1        C        0.375        0.12963        0.2607442832369943        0        
C2        C        0.40625        0.185185        0.2607442832369943        0        
C3        C        0.375        0.203703        0.2607442832369943        0        
C4        C        0.40625        0.148148        0.2607442832369943        0        
C1        C        0.375        0.24074099999999998        0.2607442832369943        0        
C2        C        0.40625        0.296297        0.2607442832369943        0        
C3        C        0.375        0.314815        0.2607442832369943        0        
C4        C        0.40625        0.259259        0.2607442832369943        0        
C1        C        0.375        0.351852        0.2607442832369943        0        
C2        C        0.40625        0.407408        0.2607442832369943        0        
C3        C        0.375        0.42592500000000005        0.2607442832369943        0        
C4        C        0.40625        0.37037        0.2607442832369943        0        
C1        C        0.375        0.46296300000000007        0.2607442832369943        0        
C2        C        0.40625        0.518519        0.2607442832369943        0        
C3        C        0.375        0.537037        0.2607442832369943        0        
C4        C        0.40625        0.481481        0.2607442832369943        0        
C1        C        0.375        0.574075        0.2607442832369943        0        
C2        C        0.40625        0.62963        0.2607442832369943        0        
C3        C        0.375        0.648148        0.2607442832369943        0        
C4        C        0.40625        0.592592        0.2607442832369943        0        
C1        C        0.4375        0.018519        0.2607442832369943        0        
C2        C        0.46875        0.074075        0.2607442832369943        0        
C3        C        0.4375        0.092592        0.2607442832369943        0        
C4        C        0.46875        0.037037        0.2607442832369943        0        
C1        C        0.4375        0.12963        0.2607442832369943        0        
C2        C        0.46875        0.185185        0.2607442832369943        0        
C3        C        0.4375        0.203703        0.2607442832369943        0        
C4        C        0.46875        0.148148        0.2607442832369943        0        
C1        C        0.4375        0.24074099999999998        0.2607442832369943        0        
C2        C        0.46875        0.296297        0.2607442832369943        0        
C3        C        0.4375        0.314815        0.2607442832369943        0        
C4        C        0.46875        0.259259        0.2607442832369943        0        
C1        C        0.4375        0.351852        0.2607442832369943        0        
C2        C        0.46875        0.407408        0.2607442832369943        0        
C3        C        0.4375        0.42592500000000005        0.2607442832369943        0        
C4        C        0.46875        0.37037        0.2607442832369943        0        
C1        C        0.4375        0.46296300000000007        0.2607442832369943        0        
C2        C        0.46875        0.518519        0.2607442832369943        0        
C3        C        0.4375        0.537037        0.2607442832369943        0        
C4        C        0.46875        0.481481        0.2607442832369943        0        
C1        C        0.4375        0.574075        0.2607442832369943        0        
C2        C        0.46875        0.62963        0.2607442832369943        0        
C3        C        0.4375        0.648148        0.2607442832369943        0        
C4        C        0.46875        0.592592        0.2607442832369943        0        
C1        C        0.5        0.018519        0.2607442832369943        0        
C2        C        0.53125        0.074075        0.2607442832369943        0        
C3        C        0.5        0.092592        0.2607442832369943        0        
C4        C        0.53125        0.037037        0.2607442832369943        0        
C1        C        0.5        0.12963        0.2607442832369943        0        
C2        C        0.53125        0.185185        0.2607442832369943        0        
C3        C        0.5        0.203703        0.2607442832369943        0        
C4        C        0.53125        0.148148        0.2607442832369943        0        
C1        C        0.5        0.24074099999999998        0.2607442832369943        0        
C2        C        0.53125        0.296297        0.2607442832369943        0        
C3        C        0.5        0.314815        0.2607442832369943        0        
C4        C        0.53125        0.259259        0.2607442832369943        0        
C1        C        0.5        0.351852        0.2607442832369943        0        
C2        C        0.53125        0.407408        0.2607442832369943        0        
C3        C        0.5        0.42592500000000005        0.2607442832369943        0        
C4        C        0.53125        0.37037        0.2607442832369943        0        
C1        C        0.5        0.46296300000000007        0.2607442832369943        0        
C2        C        0.53125        0.518519        0.2607442832369943        0        
C3        C        0.5        0.537037        0.2607442832369943        0        
C4        C        0.53125        0.481481        0.2607442832369943        0        
C1        C        0.5        0.574075        0.2607442832369943        0        
C2        C        0.53125        0.62963        0.2607442832369943        0        
C3        C        0.5        0.648148        0.2607442832369943        0        
C4        C        0.53125        0.592592        0.2607442832369943        0        
C1        C        0.5625        0.018519        0.2607442832369943        0        
C2        C        0.59375        0.074075        0.2607442832369943        0        
C3        C        0.5625        0.092592        0.2607442832369943        0        
C4        C        0.59375        0.037037        0.2607442832369943        0        
C1        C        0.5625        0.12963        0.2607442832369943        0        
C2        C        0.59375        0.185185        0.2607442832369943        0        
C3        C        0.5625        0.203703        0.2607442832369943        0        
C4        C        0.59375        0.148148        0.2607442832369943        0        
C1        C        0.5625        0.24074099999999998        0.2607442832369943        0        
C2        C        0.59375        0.296297        0.2607442832369943        0        
C3        C        0.5625        0.314815        0.2607442832369943        0        
C4        C        0.59375        0.259259        0.2607442832369943        0        
C1        C        0.5625        0.351852        0.2607442832369943        0        
C2        C        0.59375        0.407408        0.2607442832369943        0        
C3        C        0.5625        0.42592500000000005        0.2607442832369943        0        
C4        C        0.59375        0.37037        0.2607442832369943        0        
C1        C        0.5625        0.46296300000000007        0.2607442832369943        0        
C2        C        0.59375        0.518519        0.2607442832369943        0        
C3        C        0.5625        0.537037        0.2607442832369943        0        
C4        C        0.59375        0.481481        0.2607442832369943        0        
C1        C        0.5625        0.574075        0.2607442832369943        0        
C2        C        0.59375        0.62963        0.2607442832369943        0        
C3        C        0.5625        0.648148        0.2607442832369943        0        
C4        C        0.59375        0.592592        0.2607442832369943        0        
C1        C        0.625        0.018519        0.2607442832369943        0        
C2        C        0.65625        0.074075        0.2607442832369943        0        
C3        C        0.625        0.092592        0.2607442832369943        0        
C4        C        0.65625        0.037037        0.2607442832369943        0        
C1        C        0.625        0.12963        0.2607442832369943        0        
C2        C        0.65625        0.185185        0.2607442832369943        0        
C3        C        0.625        0.203703        0.2607442832369943        0        
C4        C        0.65625        0.148148        0.2607442832369943        0        
C1        C        0.625        0.24074099999999998        0.2607442832369943        0        
C2        C        0.65625        0.296297        0.2607442832369943        0        
C3        C        0.625        0.314815        0.2607442832369943        0        
C4        C        0.65625        0.259259        0.2607442832369943        0        
C1        C        0.625        0.351852        0.2607442832369943        0        
C2        C        0.65625        0.407408        0.2607442832369943        0        
C3        C        0.625        0.42592500000000005        0.2607442832369943        0        
C4        C        0.65625        0.37037        0.2607442832369943        0        
C1        C        0.625        0.46296300000000007        0.2607442832369943        0        
C2        C        0.65625        0.518519        0.2607442832369943        0        
C3        C        0.625        0.537037        0.2607442832369943        0        
C4        C        0.65625        0.481481        0.2607442832369943        0        
C1        C        0.625        0.574075        0.2607442832369943        0        
C2        C        0.65625        0.62963        0.2607442832369943        0        
C3        C        0.625        0.648148        0.2607442832369943        0        
C4        C        0.65625        0.592592        0.2607442832369943        0        
C1        C        0.6875        0.018519        0.2607442832369943        0        
C2        C        0.71875        0.074075        0.2607442832369943        0        
C3        C        0.6875        0.092592        0.2607442832369943        0        
C4        C        0.71875        0.037037        0.2607442832369943        0        
C1        C        0.6875        0.12963        0.2607442832369943        0        
C2        C        0.71875        0.185185        0.2607442832369943        0        
C3        C        0.6875        0.203703        0.2607442832369943        0        
C4        C        0.71875        0.148148        0.2607442832369943        0        
C1        C        0.6875        0.24074099999999998        0.2607442832369943        0        
C2        C        0.71875        0.296297        0.2607442832369943        0        
C3        C        0.6875        0.314815        0.2607442832369943        0        
C4        C        0.71875        0.259259        0.2607442832369943        0        
C1        C        0.6875        0.351852        0.2607442832369943        0        
C2        C        0.71875        0.407408        0.2607442832369943        0        
C3        C        0.6875        0.42592500000000005        0.2607442832369943        0        
C4        C        0.71875        0.37037        0.2607442832369943        0        
C1        C        0.6875        0.46296300000000007        0.2607442832369943        0        
C2        C        0.71875        0.518519        0.2607442832369943        0        
C3        C        0.6875        0.537037        0.2607442832369943        0        
C4        C        0.71875        0.481481        0.2607442832369943        0        
C1        C        0.6875        0.574075        0.2607442832369943        0        
C2        C        0.71875        0.62963        0.2607442832369943        0        
C3        C        0.6875        0.648148        0.2607442832369943        0        
C4        C        0.71875        0.592592        0.2607442832369943        0        
C_FG        C        0.75        0.018519        0.2607442832369943        0.08        
C2        C        0.78125        0.074075        0.2607442832369943        0        
C3        C        0.75        0.092592        0.2607442832369943        0        
C4        C        0.78125        0.037037        0.2607442832369943        0        
C1        C        0.75        0.12963        0.2607442832369943        0        
C2        C        0.78125        0.185185        0.2607442832369943        0        
C_FG        C        0.75        0.203703        0.2607442832369943        0.08        
C4        C        0.78125        0.148148        0.2607442832369943        0        
C1        C        0.75        0.24074099999999998        0.2607442832369943        0        
C2        C        0.78125        0.296297        0.2607442832369943        0        
C3        C        0.75        0.314815        0.2607442832369943        0        
C4        C        0.78125        0.259259        0.2607442832369943        0        
C_FG        C        0.75        0.351852        0.2607442832369943        0.08        
C2        C        0.78125        0.407408        0.2607442832369943        0        
C3        C        0.75        0.42592500000000005        0.2607442832369943        0        
C4        C        0.78125        0.37037        0.2607442832369943        0        
C1        C        0.75        0.46296300000000007        0.2607442832369943        0        
C2        C        0.78125        0.518519        0.2607442832369943        0        
C_FG        C        0.75        0.537037        0.2607442832369943        0.08        
C4        C        0.78125        0.481481        0.2607442832369943        0        
C1        C        0.75        0.574075        0.2607442832369943        0        
C2        C        0.78125        0.62963        0.2607442832369943        0        
C3        C        0.75        0.648148        0.2607442832369943        0        
C4        C        0.78125        0.592592        0.2607442832369943        0        
C1        C        0.8125        0.018519        0.2607442832369943        0        
C2        C        0.84375        0.074075        0.2607442832369943        0        
C3        C        0.8125        0.092592        0.2607442832369943        0        
C4        C        0.84375        0.037037        0.2607442832369943        0        
C1        C        0.8125        0.12963        0.2607442832369943        0        
C2        C        0.84375        0.185185        0.2607442832369943        0        
C3        C        0.8125        0.203703        0.2607442832369943        0        
C4        C        0.84375        0.148148        0.2607442832369943        0        
C1        C        0.8125        0.24074099999999998        0.2607442832369943        0        
C2        C        0.84375        0.296297        0.2607442832369943        0        
C3        C        0.8125        0.314815        0.2607442832369943        0        
C4        C        0.84375        0.259259        0.2607442832369943        0        
C1        C        0.8125        0.351852        0.2607442832369943        0        
C2        C        0.84375        0.407408        0.2607442832369943        0        
C3        C        0.8125        0.42592500000000005        0.2607442832369943        0        
C4        C        0.84375        0.37037        0.2607442832369943        0        
C1        C        0.8125        0.46296300000000007        0.2607442832369943        0        
C2        C        0.84375        0.518519        0.2607442832369943        0        
C3        C        0.8125        0.537037        0.2607442832369943        0        
C4        C        0.84375        0.481481        0.2607442832369943        0        
C1        C        0.8125        0.574075        0.2607442832369943        0        
C2        C        0.84375        0.62963        0.2607442832369943        0        
C3        C        0.8125        0.648148        0.2607442832369943        0        
C4        C        0.84375        0.592592        0.2607442832369943        0        
C1        C        0.875        0.018519        0.2607442832369943        0        
C2        C        0.9062500000000001        0.074075        0.2607442832369943        0        
C3        C        0.875        0.092592        0.2607442832369943        0        
C4        C        0.9062500000000001        0.037037        0.2607442832369943        0        
C1        C        0.875        0.12963        0.2607442832369943        0        
C2        C        0.9062500000000001        0.185185        0.2607442832369943        0        
C3        C        0.875        0.203703        0.2607442832369943        0        
C4        C        0.9062500000000001        0.148148        0.2607442832369943        0        
C1        C        0.875        0.24074099999999998        0.2607442832369943        0        
C2        C        0.9062500000000001        0.296297        0.2607442832369943        0        
C3        C        0.875        0.314815        0.2607442832369943        0        
C4        C        0.9062500000000001        0.259259        0.2607442832369943        0        
C1        C        0.875        0.351852        0.2607442832369943        0        
C2        C        0.9062500000000001        0.407408        0.2607442832369943        0        
C3        C        0.875        0.42592500000000005        0.2607442832369943        0        
C4        C        0.9062500000000001        0.37037        0.2607442832369943        0        
C1        C        0.875        0.46296300000000007        0.2607442832369943        0        
C2        C        0.9062500000000001        0.518519        0.2607442832369943        0        
C3        C        0.875        0.537037        0.2607442832369943        0        
C4        C        0.9062500000000001        0.481481        0.2607442832369943        0        
C1        C        0.875        0.574075        0.2607442832369943        0        
C2        C        0.9062500000000001        0.62963        0.2607442832369943        0        
C3        C        0.875        0.648148        0.2607442832369943        0        
C4        C        0.9062500000000001        0.592592        0.2607442832369943        0        
C1        C        0.9375        0.018519        0.2607442832369943        0        
C2        C        0.9687500000000001        0.074075        0.2607442832369943        0        
C3        C        0.9375        0.092592        0.2607442832369943        0        
C4        C        0.9687500000000001        0.037037        0.2607442832369943        0        
C1        C        0.9375        0.12963        0.2607442832369943        0        
C2        C        0.9687500000000001        0.185185        0.2607442832369943        0        
C3        C        0.9375        0.203703        0.2607442832369943        0        
C4        C        0.9687500000000001        0.148148        0.2607442832369943        0        
C1        C        0.9375        0.24074099999999998        0.2607442832369943        0        
C2        C        0.9687500000000001        0.296297        0.2607442832369943        0        
C3        C        0.9375        0.314815        0.2607442832369943        0        
C4        C        0.9687500000000001        0.259259        0.2607442832369943        0        
C1        C        0.9375        0.351852        0.2607442832369943        0        
C2        C        0.9687500000000001        0.407408        0.2607442832369943        0        
C3        C        0.9375        0.42592500000000005        0.2607442832369943        0        
C4        C        0.9687500000000001        0.37037        0.2607442832369943        0        
C1        C        0.9375        0.46296300000000007        0.2607442832369943        0        
C2        C        0.9687500000000001        0.518519        0.2607442832369943        0        
C3        C        0.9375        0.537037        0.2607442832369943        0        
C4        C        0.9687500000000001        0.481481        0.2607442832369943        0        
C1        C        0.9375        0.574075        0.2607442832369943        0        
C2        C        0.9687500000000001        0.62963        0.2607442832369943        0        
C3        C        0.9375        0.648148        0.2607442832369943        0        
C4        C        0.9687500000000001        0.592592        0.2607442832369943        0        
C_FG        C        0.0        0.685186        0.2607442832369943        0.08        
C1        C        0.0625        0.685186        0.2607442832369943        0        
C1        C        0.125        0.685186        0.2607442832369943        0        
C1        C        0.1875        0.685186        0.2607442832369943        0        
C_FG        C        0.25        0.685186        0.2607442832369943        0.08        
C1        C        0.3125        0.685186        0.2607442832369943        0        
C1        C        0.375        0.685186        0.2607442832369943        0        
C1        C        0.4375        0.685186        0.2607442832369943        0        
C1        C        0.5        0.685186        0.2607442832369943        0        
C1        C        0.5625        0.685186        0.2607442832369943        0        
C1        C        0.625        0.685186        0.2607442832369943        0        
C1        C        0.6875        0.685186        0.2607442832369943        0        
C_FG        C        0.75        0.685186        0.2607442832369943        0.08        
C1        C        0.8125        0.685186        0.2607442832369943        0        
C1        C        0.875        0.685186        0.2607442832369943        0        
C1        C        0.9375        0.685186        0.2607442832369943        0        
C2        C        0.03125        0.740741        0.2607442832369943        0        
C2        C        0.09375        0.740741        0.2607442832369943        0        
C2        C        0.15625        0.740741        0.2607442832369943        0        
C2        C        0.21875        0.740741        0.2607442832369943        0        
C2        C        0.28125        0.740741        0.2607442832369943        0        
C2        C        0.34375        0.740741        0.2607442832369943        0        
C2        C        0.40625        0.740741        0.2607442832369943        0        
C2        C        0.46875        0.740741        0.2607442832369943        0        
C2        C        0.53125        0.740741        0.2607442832369943        0        
C2        C        0.59375        0.740741        0.2607442832369943        0        
C2        C        0.65625        0.740741        0.2607442832369943        0        
C2        C        0.71875        0.740741        0.2607442832369943        0        
C2        C        0.78125        0.740741        0.2607442832369943        0        
C2        C        0.84375        0.740741        0.2607442832369943        0        
C2        C        0.9062500000000001        0.740741        0.2607442832369943        0        
C2        C        0.9687500000000001        0.740741        0.2607442832369943        0        
C3        C        0.0        0.759259        0.2607442832369943        0        
C3        C        0.0625        0.759259        0.2607442832369943        0        
C3        C        0.125        0.759259        0.2607442832369943        0        
C3        C        0.1875        0.759259        0.2607442832369943        0        
C3        C        0.25        0.759259        0.2607442832369943        0        
C3        C        0.3125        0.759259        0.2607442832369943        0        
C3        C        0.375        0.759259        0.2607442832369943        0        
C3        C        0.4375        0.759259        0.2607442832369943        0        
C3        C        0.5        0.759259        0.2607442832369943        0        
C3        C        0.5625        0.759259        0.2607442832369943        0        
C3        C        0.625        0.759259        0.2607442832369943        0        
C3        C        0.6875        0.759259        0.2607442832369943        0        
C3        C        0.75        0.759259        0.2607442832369943        0        
C3        C        0.8125        0.759259        0.2607442832369943        0        
C3        C        0.875        0.759259        0.2607442832369943        0        
C3        C        0.9375        0.759259        0.2607442832369943        0        
C4        C        0.03125        0.703703        0.2607442832369943        0        
C4        C        0.09375        0.703703        0.2607442832369943        0        
C4        C        0.15625        0.703703        0.2607442832369943        0        
C4        C        0.21875        0.703703        0.2607442832369943        0        
C4        C        0.28125        0.703703        0.2607442832369943        0        
C4        C        0.34375        0.703703        0.2607442832369943        0        
C4        C        0.40625        0.703703        0.2607442832369943        0        
C4        C        0.46875        0.703703        0.2607442832369943        0        
C4        C        0.53125        0.703703        0.2607442832369943        0        
C4        C        0.59375        0.703703        0.2607442832369943        0        
C4        C        0.65625        0.703703        0.2607442832369943        0        
C4        C        0.71875        0.703703        0.2607442832369943        0        
C4        C        0.78125        0.703703        0.2607442832369943        0        
C4        C        0.84375        0.703703        0.2607442832369943        0        
C4        C        0.9062500000000001        0.703703        0.2607442832369943        0        
C4        C        0.9687500000000001        0.703703        0.2607442832369943        0        
C1        C        0.0        0.796297        0.2607442832369943        0        
C1        C        0.0625        0.796297        0.2607442832369943        0        
C1        C        0.125        0.796297        0.2607442832369943        0        
C1        C        0.1875        0.796297        0.2607442832369943        0        
C1        C        0.25        0.796297        0.2607442832369943        0        
C1        C        0.3125        0.796297        0.2607442832369943        0        
C1        C        0.375        0.796297        0.2607442832369943        0        
C1        C        0.4375        0.796297        0.2607442832369943        0        
C1        C        0.5        0.796297        0.2607442832369943        0        
C1        C        0.5625        0.796297        0.2607442832369943        0        
C1        C        0.625        0.796297        0.2607442832369943        0        
C1        C        0.6875        0.796297        0.2607442832369943        0        
C1        C        0.75        0.796297        0.2607442832369943        0        
C1        C        0.8125        0.796297        0.2607442832369943        0        
C1        C        0.875        0.796297        0.2607442832369943        0        
C1        C        0.9375        0.796297        0.2607442832369943        0        
C2        C        0.03125        0.851852        0.2607442832369943        0        
C2        C        0.09375        0.851852        0.2607442832369943        0        
C2        C        0.15625        0.851852        0.2607442832369943        0        
C2        C        0.21875        0.851852        0.2607442832369943        0        
C2        C        0.28125        0.851852        0.2607442832369943        0        
C2        C        0.34375        0.851852        0.2607442832369943        0        
C2        C        0.40625        0.851852        0.2607442832369943        0        
C2        C        0.46875        0.851852        0.2607442832369943        0        
C2        C        0.53125        0.851852        0.2607442832369943        0        
C2        C        0.59375        0.851852        0.2607442832369943        0        
C2        C        0.65625        0.851852        0.2607442832369943        0        
C2        C        0.71875        0.851852        0.2607442832369943        0        
C2        C        0.78125        0.851852        0.2607442832369943        0        
C2        C        0.84375        0.851852        0.2607442832369943        0        
C2        C        0.9062500000000001        0.851852        0.2607442832369943        0        
C2        C        0.9687500000000001        0.851852        0.2607442832369943        0        
C_FG        C        0.0        0.87037        0.2607442832369943        0.08        
C3        C        0.0625        0.87037        0.2607442832369943        0        
C3        C        0.125        0.87037        0.2607442832369943        0        
C3        C        0.1875        0.87037        0.2607442832369943        0        
C_FG        C        0.25        0.87037        0.2607442832369943        0.08        
C3        C        0.3125        0.87037        0.2607442832369943        0        
C3        C        0.375        0.87037        0.2607442832369943        0        
C3        C        0.4375        0.87037        0.2607442832369943        0        
C3        C        0.5        0.87037        0.2607442832369943        0        
C3        C        0.5625        0.87037        0.2607442832369943        0        
C3        C        0.625        0.87037        0.2607442832369943        0        
C3        C        0.6875        0.87037        0.2607442832369943        0        
C_FG        C        0.75        0.87037        0.2607442832369943        0.08        
C3        C        0.8125        0.87037        0.2607442832369943        0        
C3        C        0.875        0.87037        0.2607442832369943        0        
C3        C        0.9375        0.87037        0.2607442832369943        0        
C4        C        0.03125        0.814814        0.2607442832369943        0        
C4        C        0.09375        0.814814        0.2607442832369943        0        
C4        C        0.15625        0.814814        0.2607442832369943        0        
C4        C        0.21875        0.814814        0.2607442832369943        0        
C4        C        0.28125        0.814814        0.2607442832369943        0        
C4        C        0.34375        0.814814        0.2607442832369943        0        
C4        C        0.40625        0.814814        0.2607442832369943        0        
C4        C        0.46875        0.814814        0.2607442832369943        0        
C4        C        0.53125        0.814814        0.2607442832369943        0        
C4        C        0.59375        0.814814        0.2607442832369943        0        
C4        C        0.65625        0.814814        0.2607442832369943        0        
C4        C        0.71875        0.814814        0.2607442832369943        0        
C4        C        0.78125        0.814814        0.2607442832369943        0        
C4        C        0.84375        0.814814        0.2607442832369943        0        
C4        C        0.9062500000000001        0.814814        0.2607442832369943        0        
C4        C        0.9687500000000001        0.814814        0.2607442832369943        0        
C1        C        0.0        0.907408        0.2607442832369943        0        
C1        C        0.0625        0.907408        0.2607442832369943        0        
C1        C        0.125        0.907408        0.2607442832369943        0        
C1        C        0.1875        0.907408        0.2607442832369943        0        
C1        C        0.25        0.907408        0.2607442832369943        0        
C1        C        0.3125        0.907408        0.2607442832369943        0        
C1        C        0.375        0.907408        0.2607442832369943        0        
C1        C        0.4375        0.907408        0.2607442832369943        0        
C1        C        0.5        0.907408        0.2607442832369943        0        
C1        C        0.5625        0.907408        0.2607442832369943        0        
C1        C        0.625        0.907408        0.2607442832369943        0        
C1        C        0.6875        0.907408        0.2607442832369943        0        
C1        C        0.75        0.907408        0.2607442832369943        0        
C1        C        0.8125        0.907408        0.2607442832369943        0        
C1        C        0.875        0.907408        0.2607442832369943        0        
C1        C        0.9375        0.907408        0.2607442832369943        0        
C2        C        0.03125        0.962963        0.2607442832369943        0        
C2        C        0.09375        0.962963        0.2607442832369943        0        
C2        C        0.15625        0.962963        0.2607442832369943        0        
C2        C        0.21875        0.962963        0.2607442832369943        0        
C2        C        0.28125        0.962963        0.2607442832369943        0        
C2        C        0.34375        0.962963        0.2607442832369943        0        
C2        C        0.40625        0.962963        0.2607442832369943        0        
C2        C        0.46875        0.962963        0.2607442832369943        0        
C2        C        0.53125        0.962963        0.2607442832369943        0        
C2        C        0.59375        0.962963        0.2607442832369943        0        
C2        C        0.65625        0.962963        0.2607442832369943        0        
C2        C        0.71875        0.962963        0.2607442832369943        0        
C2        C        0.78125        0.962963        0.2607442832369943        0        
C2        C        0.84375        0.962963        0.2607442832369943        0        
C2        C        0.9062500000000001        0.962963        0.2607442832369943        0        
C2        C        0.9687500000000001        0.962963        0.2607442832369943        0        
C3        C        0.0        0.9814809999999999        0.2607442832369943        0        
C3        C        0.0625        0.9814809999999999        0.2607442832369943        0        
C3        C        0.125        0.9814809999999999        0.2607442832369943        0        
C3        C        0.1875        0.9814809999999999        0.2607442832369943        0        
C3        C        0.25        0.9814809999999999        0.2607442832369943        0        
C3        C        0.3125        0.9814809999999999        0.2607442832369943        0        
C3        C        0.375        0.9814809999999999        0.2607442832369943        0        
C3        C        0.4375        0.9814809999999999        0.2607442832369943        0        
C3        C        0.5        0.9814809999999999        0.2607442832369943        0        
C3        C        0.5625        0.9814809999999999        0.2607442832369943        0        
C3        C        0.625        0.9814809999999999        0.2607442832369943        0        
C3        C        0.6875        0.9814809999999999        0.2607442832369943        0        
C3        C        0.75        0.9814809999999999        0.2607442832369943        0        
C3        C        0.8125        0.9814809999999999        0.2607442832369943        0        
C3        C        0.875        0.9814809999999999        0.2607442832369943        0        
C3        C        0.9375        0.9814809999999999        0.2607442832369943        0        
C4        C        0.03125        0.925925        0.2607442832369943        0        
C4        C        0.09375        0.925925        0.2607442832369943        0        
C4        C        0.15625        0.925925        0.2607442832369943        0        
C4        C        0.21875        0.925925        0.2607442832369943        0        
C4        C        0.28125        0.925925        0.2607442832369943        0        
C4        C        0.34375        0.925925        0.2607442832369943        0        
C4        C        0.40625        0.925925        0.2607442832369943        0        
C4        C        0.46875        0.925925        0.2607442832369943        0        
C4        C        0.53125        0.925925        0.2607442832369943        0        
C4        C        0.59375        0.925925        0.2607442832369943        0        
C4        C        0.65625        0.925925        0.2607442832369943        0        
C4        C        0.71875        0.925925        0.2607442832369943        0        
C4        C        0.78125        0.925925        0.2607442832369943        0        
C4        C        0.84375        0.925925        0.2607442832369943        0        
C4        C        0.9062500000000001        0.925925        0.2607442832369943        0        
C4        C        0.9687500000000001        0.925925        0.2607442832369943        0        
C_COOH        C        0.0        0.018519        0.02317164739884393        0.55        
C_COOH        C        0.0        0.203703        0.02317164739884393        0.55        
C_COOH        C        0.0        0.351852        0.02317164739884393        0.55        
C_COOH        C        0.0        0.537037        0.02317164739884393        0.55        
C_COOH        C        0.25        0.018519        0.02317164739884393        0.55        
C_COOH        C        0.25        0.203703        0.02317164739884393        0.55        
C_COOH        C        0.25        0.351852        0.02317164739884393        0.55        
C_COOH        C        0.25        0.537037        0.02317164739884393        0.55        
C_COOH        C        0.75        0.018519        0.02317164739884393        0.55        
C_COOH        C        0.75        0.203703        0.02317164739884393        0.55        
C_COOH        C        0.75        0.351852        0.02317164739884393        0.55        
C_COOH        C        0.75        0.537037        0.02317164739884393        0.55        
C_COOH        C        0.0        0.685186        0.02317164739884393        0.55        
C_COOH        C        0.25        0.685186        0.02317164739884393        0.55        
C_COOH        C        0.75        0.685186        0.02317164739884393        0.55        
C_COOH        C        0.0        0.87037        0.02317164739884393        0.55        
C_COOH        C        0.25        0.87037        0.02317164739884393        0.55        
C_COOH        C        0.75        0.87037        0.02317164739884393        0.55        
C_COOH        C        0.0        0.018519        0.3046745375722543        0.55        
C_COOH        C        0.0        0.203703        0.3046745375722543        0.55        
C_COOH        C        0.0        0.351852        0.3046745375722543        0.55        
C_COOH        C        0.0        0.537037        0.3046745375722543        0.55        
C_COOH        C        0.25        0.018519        0.3046745375722543        0.55        
C_COOH        C        0.25        0.203703        0.3046745375722543        0.55        
C_COOH        C        0.25        0.351852        0.3046745375722543        0.55        
C_COOH        C        0.25        0.537037        0.3046745375722543        0.55        
C_COOH        C        0.75        0.018519        0.3046745375722543        0.55        
C_COOH        C        0.75        0.203703        0.3046745375722543        0.55        
C_COOH        C        0.75        0.351852        0.3046745375722543        0.55        
C_COOH        C        0.75        0.537037        0.3046745375722543        0.55        
C_COOH        C        0.0        0.685186        0.3046745375722543        0.55        
C_COOH        C        0.25        0.685186        0.3046745375722543        0.55        
C_COOH        C        0.75        0.685186        0.3046745375722543        0.55        
C_COOH        C        0.0        0.87037        0.3046745375722543        0.55        
C_COOH        C        0.25        0.87037        0.3046745375722543        0.55        
C_COOH        C        0.75        0.87037        0.3046745375722543        0.55        
O1_COOH        O        -0.02744058420788084        0.027478124246929324        0.010597687861271674        -0.5        
O1_COOH        O        0.017124961101152535        0.2274679652662871        0.010597687861271674        -0.5        
O1_COOH        O        0.023951538895850537        0.3682606253591646        0.010597687861271674        -0.5        
O1_COOH        O        -0.028747806623149772        0.538726680552193        0.010597687861271674        -0.5        
O1_COOH        O        0.27666795399808203        0.029669148041263062        0.010597687861271674        -0.5        
O1_COOH        O        0.2761383178762288        0.21610468684311082        0.010597687861271674        -0.5        
O1_COOH        O        0.2715880332878448        0.37141418683732774        0.010597687861271674        -0.5        
O1_COOH        O        0.2308744404516867        0.5591354322795314        0.010597687861271674        -0.5        
O1_COOH        O        0.7453008144956703        0.047683645464605316        0.010597687861271674        -0.5        
O1_COOH        O        0.7430916625702694        0.23240058194382662        0.010597687861271674        -0.5        
O1_COOH        O        0.7334518160148591        0.37604378833995583        0.010597687861271674        -0.5        
O1_COOH        O        0.764604787220106        0.5625134482469941        0.010597687861271674        -0.5        
O1_COOH        O        0.020378611712153383        0.7060707083229549        0.010597687861271674        -0.5        
O1_COOH        O        0.2388431164058392        0.7124378290692363        0.010597687861271674        -0.5        
O1_COOH        O        0.7212207003509801        0.6861584392618475        0.010597687861271674        -0.5        
O1_COOH        O        -0.022917319724771217        0.888267740268533        0.010597687861271674        -0.5        
O1_COOH        O        0.27855278481391665        0.8741952305085811        0.010597687861271674        -0.5        
O1_COOH        O        0.7290373764592872        0.8906363646934277        0.010597687861271674        -0.5        
O1_COOH        O        -0.026904198933763217        0.02905405024337626        0.31724849710982655        -0.5        
O1_COOH        O        0.010661260727948924        0.23116313077939526        0.31724849710982655        -0.5        
O1_COOH        O        -0.00437794235341927        0.3810692847327984        0.31724849710982655        -0.5        
O1_COOH        O        -0.0011087555668876955        0.566576022655264        0.31724849710982655        -0.5        
O1_COOH        O        0.2770620498417154        0.02861896896053362        0.31724849710982655        -0.5        
O1_COOH        O        0.23795901386045845        0.23055532046795704        0.31724849710982655        -0.5        
O1_COOH        O        0.2561618505545312        0.38072818354097004        0.31724849710982655        -0.5        
O1_COOH        O        0.25000215246479923        0.5665979450861002        0.31724849710982655        -0.5        
O1_COOH        O        0.7659794947566786        0.04311042345961334        0.31724849710982655        -0.5        
O1_COOH        O        0.7632364058755047        0.22995563489664303        0.31724849710982655        -0.5        
O1_COOH        O        0.7277144860074666        0.3705717308432984        0.31724849710982655        -0.5        
O1_COOH        O        0.741941568200466        0.5654167453678519        0.31724849710982655        -0.5        
O1_COOH        O        0.0059308010598148235        0.7141131259902825        0.31724849710982655        -0.5        
O1_COOH        O        0.2348050442308664        0.7102960444437727        0.31724849710982655        -0.5        
O1_COOH        O        0.72559813549966        0.700879763208049        0.31724849710982655        -0.5        
O1_COOH        O        0.02538407786915231        0.8843255463778993        0.31724849710982655        -0.5        
O1_COOH        O        0.24090365631977206        0.8984171891849758        0.31724849710982655        -0.5        
O1_COOH        O        0.7745343473632756        0.8858445418677595        0.31724849710982655        -0.5        
O2_COOH        O        0.026717446210298066        0.009795974340438184        0.0        -0.58        
O2_COOH        O        -0.016673669321591447        0.1805643096433539        0.0        -0.58        
O2_COOH        O        -0.023320347236629332        0.33587578892164743        0.0        -0.58        
O2_COOH        O        0.02799021957037882        0.5353918473704565        0.0        -0.58        
O2_COOH        O        0.22403482298026908        0.00766269029928491        0.0        -0.58        
O2_COOH        O        0.2245505016731659        0.19162813312990565        0.0        -0.58        
O2_COOH        O        0.22898087322833055        0.33280533282182817        0.0        -0.58        
O2_COOH        O        0.2686215462689442        0.5155209247121155        0.0        -0.58        
O2_COOH        O        0.7545753485054477        -0.009877073514324843        0.0        -0.58        
O2_COOH        O        0.7567262829494865        0.17576168154477528        0.0        -0.58        
O2_COOH        O        0.766112091934768        0.32829773458031336        0.0        -0.58        
O2_COOH        O        0.7357800907586374        0.5122319291417408        0.0        -0.58        
O2_COOH        O        -0.019841576918892264        0.6648516635657173        0.0        -0.58        
O2_COOH        O        0.26086286775249995        0.6586523346897531        0.0        -0.58        
O2_COOH        O        0.7780208826648054        0.6842391872982598        0.0        -0.58        
O2_COOH        O        0.022313382703234484        0.8529439164557188        0.0        -0.58        
O2_COOH        O        0.22219966285553996        0.8666455752727139        0.0        -0.58        
O2_COOH        O        0.7704101983628641        0.8506377120693577        0.0        -0.58        
O2_COOH        O        0.026195196224632015        0.008261578508246357        0.3278461849710983        -0.58        
O2_COOH        O        -0.010380305968527192        0.17696652232633817        0.3278461849710983        -0.58        
O2_COOH        O        0.004262571031766605        0.3234046744129844        0.3278461849710983        -0.58        
O2_COOH        O        0.0010795366816637557        0.5082764152063958        0.3278461849710983        -0.58        
O2_COOH        O        0.2236511126910051        0.008685194152993351        0.3278461849710983        -0.58        
O2_COOH        O        0.2617236716632933        0.177558315094994        0.3278461849710983        -0.58        
O2_COOH        O        0.24400053185823564        0.3237367866113219        0.3278461849710983        -0.58        
O2_COOH        O        0.249997904258814        0.508255070494409        0.3278461849710983        -0.58        
O2_COOH        O        0.734441610703511        -0.005424369009184118        0.3278461849710983        -0.58        
O2_COOH        O        0.7371124113350727        0.17814219723370123        0.3278461849710983        -0.58        
O2_COOH        O        0.7716982268618522        0.33362558768719497        0.3278461849710983        -0.58        
O2_COOH        O        0.757846069038194        0.5094051422165283        0.3278461849710983        -0.58        
O2_COOH        O        -0.005774507463076289        0.6570211866414737        0.3278461849710983        -0.58        
O2_COOH        O        0.26479452515858215        0.6607376771551817        0.3278461849710983        -0.58        
O2_COOH        O        0.7737588054714803        0.6699058124073545        0.3278461849710983        -0.58        
O2_COOH        O        -0.024715134704468802        0.8567822222448979        0.3278461849710983        -0.58        
O2_COOH        O        0.25885662896772715        0.8430619345913767        0.3278461849710983        -0.58        
O2_COOH        O        0.7261122029685203        0.8553032566373666        0.3278461849710983        -0.58        
H_COOH        H        0.04547357816931006        0.003672252070548231        0.016871676300578037        0.45        
H_COOH        H        -0.028378887686217855        0.16432052922093118        0.016871676300578037        0.45        
H_COOH        H        -0.039691654084497444        0.32466019889736164        0.016871676300578037        0.45        
H_COOH        H        0.047639861519368394        0.5342369203774516        0.016871676300578037        0.45        
H_COOH        H        0.20580679764102594        4.136392955016409e-05        0.016871676300578037        0.45        
H_COOH        H        0.20668449213200057        0.18315135751967918        0.016871676300578037        0.45        
H_COOH        H        0.21422506489659424        0.31943422690993606        0.016871676300578037        0.45        
H_COOH        H        0.2816942095898323        0.5004162495061428        0.016871676300578037        0.45        
H_COOH        H        0.7577873261642094        -0.029811632295141062        0.016871676300578037        0.45        
H_COOH        H        0.7614482556111398        0.15614636906580892        0.016871676300578037        0.45        
H_COOH        H        0.7774230727854662        0.31176221292409495        0.016871676300578037        0.45        
H_COOH        H        0.7257974564875007        0.49481831937499504        0.016871676300578037        0.45        
H_COOH        H        -0.03377072389036391        0.6505765904745868        0.016871676300578037        0.45        
H_COOH        H        0.2684887979935666        0.6400252202568091        0.016871676300578037        0.45        
H_COOH        H        0.7976920506623854        0.6835745076041556        0.016871676300578037        0.45        
H_COOH        H        0.037977782179876414        0.8407104896561421        0.016871676300578037        0.45        
H_COOH        H        0.20268332181447382        0.8640309615440462        0.016871676300578037        0.45        
H_COOH        H        0.7847385279041783        0.8367852879504053        0.016871676300578037        0.45        
H_COOH        H        0.04458469921882294        0.0010606825264896185        0.3109745086705202        0.45        
H_COOH        H        -0.017667469082401906        0.15819702993476784        0.3109745086705202        0.45        
H_COOH        H        0.00725497322946095        0.3034341357473022        0.3109745086705202        0.45        
H_COOH        H        0.0018373910176097898        0.48808596289440526        0.3109745086705202        0.45        
H_COOH        H        0.20515371576726182        0.0017816840392659483        0.3109745086705202        0.45        
H_COOH        H        0.2699539018668112        0.1592042719635786        0.3109745086705202        0.45        
H_COOH        H        0.23978879637778963        0.3039993967341946        0.3109745086705202        0.45        
H_COOH        H        0.24999643301047958        0.48804963380735883        0.3109745086705202        0.45        
H_COOH        H        0.7235193391503956        -0.02223304844451424        0.3109745086705202        0.45        
H_COOH        H        0.7280650902801257        0.16019804995669878        0.3109745086705202        0.45        
H_COOH        H        0.7869307757774224        0.3208303155722064        0.3109745086705202        0.45        
H_COOH        H        0.76335415184976        0.49000707674350114        0.3109745086705202        0.45        
H_COOH        H        -0.009828316465750058        0.637248976685649        0.3109745086705202        0.45        
H_COOH        H        0.2751805502285356        0.643574510966147        0.3109745086705202        0.45        
H_COOH        H        0.7904379179549114        0.659178843497592        0.3109745086705202        0.45        
H_COOH        H        -0.04206560765959344        0.8472433557455171        0.3109745086705202        0.45        
H_COOH        H        0.2650741431838378        0.8238911772398732        0.3109745086705202        0.45        
H_COOH        H        0.7093425360697494        0.8447261294494696        0.3109745086705202        0.45        
