data_graphite_ortho

_audit_creation_method RASPA-1.0
_audit_creation_date 2012-2-3
_audit_author_name 'David Dubbeldam'

_cell_length_a    39.36    
_cell_length_b    38.34    
_cell_length_c    25.2    
_cell_angle_alpha 90
_cell_angle_beta  90
_cell_angle_gamma 90
_cell_volume      38028.37      

_symmetry_cell_setting          triclinic
_symmetry_space_group_name_Hall 'P 1'
_symmetry_space_group_name_H-M  'P 1'
_symmetry_Int_Tables_number     1

_symmetry_equiv_pos_as_xyz 'x,y,z'

loop_
_atom_site_label
_atom_site_type_symbol
_atom_site_fract_x
_atom_site_fract_y
_atom_site_fract_z
_atom_site_charge
C_Base_COOH        C        0.0        0.018519        0.0921325        0.08        
C_Base_COOH        C        0.03125        0.074075        0.0921325        0.08        
C_Base_COOH        C        0.0        0.092592        0.0921325        0.08        
C_Base_OH        C        0.03125        0.037037        0.0921325        0.2        
C_Base_COOH        C        0.0        0.12963        0.0921325        0.08        
C_Base_COOH        C        0.03125        0.185185        0.0921325        0.08        
C_Base_OH        C        0.0        0.203703        0.0921325        0.2        
C_Base_COOH        C        0.03125        0.148148        0.0921325        0.08        
C_Base_OH        C        0.0        0.24074099999999998        0.0921325        0.2        
C_Base_OH        C        0.03125        0.296297        0.0921325        0.2        
C_Base_COOH        C        0.0        0.314815        0.0921325        0.08        
C_Base_OH        C        0.03125        0.259259        0.0921325        0.2        
C_Base_COOH        C        0.0        0.351852        0.0921325        0.08        
C_Base_COOH        C        0.03125        0.407408        0.0921325        0.08        
C_Base_OH        C        0.0        0.42592500000000005        0.0921325        0.2        
C_Base_OH        C        0.03125        0.37037        0.0921325        0.2        
C_Base_COOH        C        0.0        0.46296300000000007        0.0921325        0.08        
C_Base_OH        C        0.03125        0.518519        0.0921325        0.2        
C_Base_COOH        C        0.0        0.537037        0.0921325        0.08        
C_Base_OH        C        0.03125        0.481481        0.0921325        0.2        
C_Base_OH        C        0.0        0.574075        0.0921325        0.2        
C_Base_OH        C        0.03125        0.62963        0.0921325        0.2        
C_Base_OH        C        0.0        0.648148        0.0921325        0.2        
C_Base_COOH        C        0.03125        0.592592        0.0921325        0.08        
C_Base_COOH        C        0.0625        0.018519        0.0921325        0.08        
C_Base_COOH        C        0.09375        0.074075        0.0921325        0.08        
C_Base_COOH        C        0.0625        0.092592        0.0921325        0.08        
C_Base_OH        C        0.09375        0.037037        0.0921325        0.2        
C_Base_COOH        C        0.0625        0.12963        0.0921325        0.08        
C_Base_COOH        C        0.09375        0.185185        0.0921325        0.08        
C_Base_OH        C        0.0625        0.203703        0.0921325        0.2        
C_Base_COOH        C        0.09375        0.148148        0.0921325        0.08        
C_Base_OH        C        0.0625        0.24074099999999998        0.0921325        0.2        
C_Base_OH        C        0.09375        0.296297        0.0921325        0.2        
C_Base_COOH        C        0.0625        0.314815        0.0921325        0.08        
C_Base_OH        C        0.09375        0.259259        0.0921325        0.2        
C_Base_COOH        C        0.0625        0.351852        0.0921325        0.08        
C_Base_COOH        C        0.09375        0.407408        0.0921325        0.08        
C_Base_OH        C        0.0625        0.42592500000000005        0.0921325        0.2        
C_Base_OH        C        0.09375        0.37037        0.0921325        0.2        
C_Base_COOH        C        0.0625        0.46296300000000007        0.0921325        0.08        
C_Base_OH        C        0.09375        0.518519        0.0921325        0.2        
C_Base_COOH        C        0.0625        0.537037        0.0921325        0.08        
C_Base_OH        C        0.09375        0.481481        0.0921325        0.2        
C_Base_OH        C        0.0625        0.574075        0.0921325        0.2        
C_Base_OH        C        0.09375        0.62963        0.0921325        0.2        
C_Base_OH        C        0.0625        0.648148        0.0921325        0.2        
C_Base_COOH        C        0.09375        0.592592        0.0921325        0.08        
C1        C        0.125        0.018519        0.0921325        0        
C2        C        0.15625        0.074075        0.0921325        0        
C3        C        0.125        0.092592        0.0921325        0        
C4        C        0.15625        0.037037        0.0921325        0        
C1        C        0.125        0.12963        0.0921325        0        
C2        C        0.15625        0.185185        0.0921325        0        
C3        C        0.125        0.203703        0.0921325        0        
C4        C        0.15625        0.148148        0.0921325        0        
C1        C        0.125        0.24074099999999998        0.0921325        0        
C2        C        0.15625        0.296297        0.0921325        0        
C3        C        0.125        0.314815        0.0921325        0        
C4        C        0.15625        0.259259        0.0921325        0        
C1        C        0.125        0.351852        0.0921325        0        
C2        C        0.15625        0.407408        0.0921325        0        
C3        C        0.125        0.42592500000000005        0.0921325        0        
C4        C        0.15625        0.37037        0.0921325        0        
C1        C        0.125        0.46296300000000007        0.0921325        0        
C2        C        0.15625        0.518519        0.0921325        0        
C3        C        0.125        0.537037        0.0921325        0        
C4        C        0.15625        0.481481        0.0921325        0        
C1        C        0.125        0.574075        0.0921325        0        
C2        C        0.15625        0.62963        0.0921325        0        
C3        C        0.125        0.648148        0.0921325        0        
C4        C        0.15625        0.592592        0.0921325        0        
C1        C        0.1875        0.018519        0.0921325        0        
C2        C        0.21875        0.074075        0.0921325        0        
C3        C        0.1875        0.092592        0.0921325        0        
C4        C        0.21875        0.037037        0.0921325        0        
C1        C        0.1875        0.12963        0.0921325        0        
C2        C        0.21875        0.185185        0.0921325        0        
C3        C        0.1875        0.203703        0.0921325        0        
C4        C        0.21875        0.148148        0.0921325        0        
C1        C        0.1875        0.24074099999999998        0.0921325        0        
C2        C        0.21875        0.296297        0.0921325        0        
C3        C        0.1875        0.314815        0.0921325        0        
C4        C        0.21875        0.259259        0.0921325        0        
C1        C        0.1875        0.351852        0.0921325        0        
C2        C        0.21875        0.407408        0.0921325        0        
C3        C        0.1875        0.42592500000000005        0.0921325        0        
C4        C        0.21875        0.37037        0.0921325        0        
C1        C        0.1875        0.46296300000000007        0.0921325        0        
C2        C        0.21875        0.518519        0.0921325        0        
C3        C        0.1875        0.537037        0.0921325        0        
C4        C        0.21875        0.481481        0.0921325        0        
C1        C        0.1875        0.574075        0.0921325        0        
C2        C        0.21875        0.62963        0.0921325        0        
C3        C        0.1875        0.648148        0.0921325        0        
C4        C        0.21875        0.592592        0.0921325        0        
C1        C        0.25        0.018519        0.0921325        0        
C2        C        0.28125        0.074075        0.0921325        0        
C3        C        0.25        0.092592        0.0921325        0        
C4        C        0.28125        0.037037        0.0921325        0        
C1        C        0.25        0.12963        0.0921325        0        
C2        C        0.28125        0.185185        0.0921325        0        
C3        C        0.25        0.203703        0.0921325        0        
C4        C        0.28125        0.148148        0.0921325        0        
C1        C        0.25        0.24074099999999998        0.0921325        0        
C2        C        0.28125        0.296297        0.0921325        0        
C3        C        0.25        0.314815        0.0921325        0        
C4        C        0.28125        0.259259        0.0921325        0        
C1        C        0.25        0.351852        0.0921325        0        
C2        C        0.28125        0.407408        0.0921325        0        
C3        C        0.25        0.42592500000000005        0.0921325        0        
C4        C        0.28125        0.37037        0.0921325        0        
C1        C        0.25        0.46296300000000007        0.0921325        0        
C2        C        0.28125        0.518519        0.0921325        0        
C3        C        0.25        0.537037        0.0921325        0        
C4        C        0.28125        0.481481        0.0921325        0        
C1        C        0.25        0.574075        0.0921325        0        
C2        C        0.28125        0.62963        0.0921325        0        
C3        C        0.25        0.648148        0.0921325        0        
C4        C        0.28125        0.592592        0.0921325        0        
C1        C        0.3125        0.018519        0.0921325        0        
C2        C        0.34375        0.074075        0.0921325        0        
C3        C        0.3125        0.092592        0.0921325        0        
C4        C        0.34375        0.037037        0.0921325        0        
C1        C        0.3125        0.12963        0.0921325        0        
C2        C        0.34375        0.185185        0.0921325        0        
C3        C        0.3125        0.203703        0.0921325        0        
C4        C        0.34375        0.148148        0.0921325        0        
C1        C        0.3125        0.24074099999999998        0.0921325        0        
C2        C        0.34375        0.296297        0.0921325        0        
C3        C        0.3125        0.314815        0.0921325        0        
C4        C        0.34375        0.259259        0.0921325        0        
C1        C        0.3125        0.351852        0.0921325        0        
C2        C        0.34375        0.407408        0.0921325        0        
C3        C        0.3125        0.42592500000000005        0.0921325        0        
C4        C        0.34375        0.37037        0.0921325        0        
C1        C        0.3125        0.46296300000000007        0.0921325        0        
C2        C        0.34375        0.518519        0.0921325        0        
C3        C        0.3125        0.537037        0.0921325        0        
C4        C        0.34375        0.481481        0.0921325        0        
C1        C        0.3125        0.574075        0.0921325        0        
C2        C        0.34375        0.62963        0.0921325        0        
C3        C        0.3125        0.648148        0.0921325        0        
C4        C        0.34375        0.592592        0.0921325        0        
C1        C        0.375        0.018519        0.0921325        0        
C2        C        0.40625        0.074075        0.0921325        0        
C3        C        0.375        0.092592        0.0921325        0        
C4        C        0.40625        0.037037        0.0921325        0        
C1        C        0.375        0.12963        0.0921325        0        
C2        C        0.40625        0.185185        0.0921325        0        
C3        C        0.375        0.203703        0.0921325        0        
C4        C        0.40625        0.148148        0.0921325        0        
C1        C        0.375        0.24074099999999998        0.0921325        0        
C2        C        0.40625        0.296297        0.0921325        0        
C3        C        0.375        0.314815        0.0921325        0        
C4        C        0.40625        0.259259        0.0921325        0        
C1        C        0.375        0.351852        0.0921325        0        
C2        C        0.40625        0.407408        0.0921325        0        
C3        C        0.375        0.42592500000000005        0.0921325        0        
C4        C        0.40625        0.37037        0.0921325        0        
C1        C        0.375        0.46296300000000007        0.0921325        0        
C2        C        0.40625        0.518519        0.0921325        0        
C3        C        0.375        0.537037        0.0921325        0        
C4        C        0.40625        0.481481        0.0921325        0        
C1        C        0.375        0.574075        0.0921325        0        
C2        C        0.40625        0.62963        0.0921325        0        
C3        C        0.375        0.648148        0.0921325        0        
C4        C        0.40625        0.592592        0.0921325        0        
C1        C        0.4375        0.018519        0.0921325        0        
C2        C        0.46875        0.074075        0.0921325        0        
C3        C        0.4375        0.092592        0.0921325        0        
C4        C        0.46875        0.037037        0.0921325        0        
C1        C        0.4375        0.12963        0.0921325        0        
C2        C        0.46875        0.185185        0.0921325        0        
C3        C        0.4375        0.203703        0.0921325        0        
C4        C        0.46875        0.148148        0.0921325        0        
C1        C        0.4375        0.24074099999999998        0.0921325        0        
C2        C        0.46875        0.296297        0.0921325        0        
C3        C        0.4375        0.314815        0.0921325        0        
C4        C        0.46875        0.259259        0.0921325        0        
C1        C        0.4375        0.351852        0.0921325        0        
C2        C        0.46875        0.407408        0.0921325        0        
C3        C        0.4375        0.42592500000000005        0.0921325        0        
C4        C        0.46875        0.37037        0.0921325        0        
C1        C        0.4375        0.46296300000000007        0.0921325        0        
C2        C        0.46875        0.518519        0.0921325        0        
C3        C        0.4375        0.537037        0.0921325        0        
C4        C        0.46875        0.481481        0.0921325        0        
C1        C        0.4375        0.574075        0.0921325        0        
C2        C        0.46875        0.62963        0.0921325        0        
C3        C        0.4375        0.648148        0.0921325        0        
C4        C        0.46875        0.592592        0.0921325        0        
C1        C        0.5        0.018519        0.0921325        0        
C2        C        0.53125        0.074075        0.0921325        0        
C3        C        0.5        0.092592        0.0921325        0        
C4        C        0.53125        0.037037        0.0921325        0        
C1        C        0.5        0.12963        0.0921325        0        
C2        C        0.53125        0.185185        0.0921325        0        
C3        C        0.5        0.203703        0.0921325        0        
C4        C        0.53125        0.148148        0.0921325        0        
C1        C        0.5        0.24074099999999998        0.0921325        0        
C2        C        0.53125        0.296297        0.0921325        0        
C3        C        0.5        0.314815        0.0921325        0        
C4        C        0.53125        0.259259        0.0921325        0        
C1        C        0.5        0.351852        0.0921325        0        
C2        C        0.53125        0.407408        0.0921325        0        
C3        C        0.5        0.42592500000000005        0.0921325        0        
C4        C        0.53125        0.37037        0.0921325        0        
C1        C        0.5        0.46296300000000007        0.0921325        0        
C2        C        0.53125        0.518519        0.0921325        0        
C3        C        0.5        0.537037        0.0921325        0        
C4        C        0.53125        0.481481        0.0921325        0        
C1        C        0.5        0.574075        0.0921325        0        
C2        C        0.53125        0.62963        0.0921325        0        
C3        C        0.5        0.648148        0.0921325        0        
C4        C        0.53125        0.592592        0.0921325        0        
C1        C        0.5625        0.018519        0.0921325        0        
C2        C        0.59375        0.074075        0.0921325        0        
C3        C        0.5625        0.092592        0.0921325        0        
C4        C        0.59375        0.037037        0.0921325        0        
C1        C        0.5625        0.12963        0.0921325        0        
C2        C        0.59375        0.185185        0.0921325        0        
C3        C        0.5625        0.203703        0.0921325        0        
C4        C        0.59375        0.148148        0.0921325        0        
C1        C        0.5625        0.24074099999999998        0.0921325        0        
C2        C        0.59375        0.296297        0.0921325        0        
C3        C        0.5625        0.314815        0.0921325        0        
C4        C        0.59375        0.259259        0.0921325        0        
C1        C        0.5625        0.351852        0.0921325        0        
C2        C        0.59375        0.407408        0.0921325        0        
C3        C        0.5625        0.42592500000000005        0.0921325        0        
C4        C        0.59375        0.37037        0.0921325        0        
C1        C        0.5625        0.46296300000000007        0.0921325        0        
C2        C        0.59375        0.518519        0.0921325        0        
C3        C        0.5625        0.537037        0.0921325        0        
C4        C        0.59375        0.481481        0.0921325        0        
C1        C        0.5625        0.574075        0.0921325        0        
C2        C        0.59375        0.62963        0.0921325        0        
C3        C        0.5625        0.648148        0.0921325        0        
C4        C        0.59375        0.592592        0.0921325        0        
C1        C        0.625        0.018519        0.0921325        0        
C2        C        0.65625        0.074075        0.0921325        0        
C3        C        0.625        0.092592        0.0921325        0        
C4        C        0.65625        0.037037        0.0921325        0        
C1        C        0.625        0.12963        0.0921325        0        
C2        C        0.65625        0.185185        0.0921325        0        
C3        C        0.625        0.203703        0.0921325        0        
C4        C        0.65625        0.148148        0.0921325        0        
C1        C        0.625        0.24074099999999998        0.0921325        0        
C2        C        0.65625        0.296297        0.0921325        0        
C3        C        0.625        0.314815        0.0921325        0        
C4        C        0.65625        0.259259        0.0921325        0        
C1        C        0.625        0.351852        0.0921325        0        
C2        C        0.65625        0.407408        0.0921325        0        
C3        C        0.625        0.42592500000000005        0.0921325        0        
C4        C        0.65625        0.37037        0.0921325        0        
C1        C        0.625        0.46296300000000007        0.0921325        0        
C2        C        0.65625        0.518519        0.0921325        0        
C3        C        0.625        0.537037        0.0921325        0        
C4        C        0.65625        0.481481        0.0921325        0        
C1        C        0.625        0.574075        0.0921325        0        
C2        C        0.65625        0.62963        0.0921325        0        
C3        C        0.625        0.648148        0.0921325        0        
C4        C        0.65625        0.592592        0.0921325        0        
C1        C        0.6875        0.018519        0.0921325        0        
C2        C        0.71875        0.074075        0.0921325        0        
C3        C        0.6875        0.092592        0.0921325        0        
C4        C        0.71875        0.037037        0.0921325        0        
C1        C        0.6875        0.12963        0.0921325        0        
C2        C        0.71875        0.185185        0.0921325        0        
C3        C        0.6875        0.203703        0.0921325        0        
C4        C        0.71875        0.148148        0.0921325        0        
C1        C        0.6875        0.24074099999999998        0.0921325        0        
C2        C        0.71875        0.296297        0.0921325        0        
C3        C        0.6875        0.314815        0.0921325        0        
C4        C        0.71875        0.259259        0.0921325        0        
C1        C        0.6875        0.351852        0.0921325        0        
C2        C        0.71875        0.407408        0.0921325        0        
C3        C        0.6875        0.42592500000000005        0.0921325        0        
C4        C        0.71875        0.37037        0.0921325        0        
C1        C        0.6875        0.46296300000000007        0.0921325        0        
C2        C        0.71875        0.518519        0.0921325        0        
C3        C        0.6875        0.537037        0.0921325        0        
C4        C        0.71875        0.481481        0.0921325        0        
C1        C        0.6875        0.574075        0.0921325        0        
C2        C        0.71875        0.62963        0.0921325        0        
C3        C        0.6875        0.648148        0.0921325        0        
C4        C        0.71875        0.592592        0.0921325        0        
C1        C        0.75        0.018519        0.0921325        0        
C2        C        0.78125        0.074075        0.0921325        0        
C3        C        0.75        0.092592        0.0921325        0        
C4        C        0.78125        0.037037        0.0921325        0        
C1        C        0.75        0.12963        0.0921325        0        
C2        C        0.78125        0.185185        0.0921325        0        
C3        C        0.75        0.203703        0.0921325        0        
C4        C        0.78125        0.148148        0.0921325        0        
C1        C        0.75        0.24074099999999998        0.0921325        0        
C2        C        0.78125        0.296297        0.0921325        0        
C3        C        0.75        0.314815        0.0921325        0        
C4        C        0.78125        0.259259        0.0921325        0        
C1        C        0.75        0.351852        0.0921325        0        
C2        C        0.78125        0.407408        0.0921325        0        
C3        C        0.75        0.42592500000000005        0.0921325        0        
C4        C        0.78125        0.37037        0.0921325        0        
C1        C        0.75        0.46296300000000007        0.0921325        0        
C2        C        0.78125        0.518519        0.0921325        0        
C3        C        0.75        0.537037        0.0921325        0        
C4        C        0.78125        0.481481        0.0921325        0        
C1        C        0.75        0.574075        0.0921325        0        
C2        C        0.78125        0.62963        0.0921325        0        
C3        C        0.75        0.648148        0.0921325        0        
C4        C        0.78125        0.592592        0.0921325        0        
C1        C        0.8125        0.018519        0.0921325        0        
C2        C        0.84375        0.074075        0.0921325        0        
C3        C        0.8125        0.092592        0.0921325        0        
C4        C        0.84375        0.037037        0.0921325        0        
C1        C        0.8125        0.12963        0.0921325        0        
C2        C        0.84375        0.185185        0.0921325        0        
C3        C        0.8125        0.203703        0.0921325        0        
C4        C        0.84375        0.148148        0.0921325        0        
C1        C        0.8125        0.24074099999999998        0.0921325        0        
C2        C        0.84375        0.296297        0.0921325        0        
C3        C        0.8125        0.314815        0.0921325        0        
C4        C        0.84375        0.259259        0.0921325        0        
C1        C        0.8125        0.351852        0.0921325        0        
C2        C        0.84375        0.407408        0.0921325        0        
C3        C        0.8125        0.42592500000000005        0.0921325        0        
C4        C        0.84375        0.37037        0.0921325        0        
C1        C        0.8125        0.46296300000000007        0.0921325        0        
C2        C        0.84375        0.518519        0.0921325        0        
C3        C        0.8125        0.537037        0.0921325        0        
C4        C        0.84375        0.481481        0.0921325        0        
C1        C        0.8125        0.574075        0.0921325        0        
C2        C        0.84375        0.62963        0.0921325        0        
C3        C        0.8125        0.648148        0.0921325        0        
C4        C        0.84375        0.592592        0.0921325        0        
C1        C        0.875        0.018519        0.0921325        0        
C2        C        0.9062500000000001        0.074075        0.0921325        0        
C3        C        0.875        0.092592        0.0921325        0        
C4        C        0.9062500000000001        0.037037        0.0921325        0        
C1        C        0.875        0.12963        0.0921325        0        
C2        C        0.9062500000000001        0.185185        0.0921325        0        
C3        C        0.875        0.203703        0.0921325        0        
C4        C        0.9062500000000001        0.148148        0.0921325        0        
C1        C        0.875        0.24074099999999998        0.0921325        0        
C2        C        0.9062500000000001        0.296297        0.0921325        0        
C3        C        0.875        0.314815        0.0921325        0        
C4        C        0.9062500000000001        0.259259        0.0921325        0        
C1        C        0.875        0.351852        0.0921325        0        
C2        C        0.9062500000000001        0.407408        0.0921325        0        
C3        C        0.875        0.42592500000000005        0.0921325        0        
C4        C        0.9062500000000001        0.37037        0.0921325        0        
C1        C        0.875        0.46296300000000007        0.0921325        0        
C2        C        0.9062500000000001        0.518519        0.0921325        0        
C3        C        0.875        0.537037        0.0921325        0        
C4        C        0.9062500000000001        0.481481        0.0921325        0        
C1        C        0.875        0.574075        0.0921325        0        
C2        C        0.9062500000000001        0.62963        0.0921325        0        
C3        C        0.875        0.648148        0.0921325        0        
C4        C        0.9062500000000001        0.592592        0.0921325        0        
C1        C        0.9375        0.018519        0.0921325        0        
C2        C        0.9687500000000001        0.074075        0.0921325        0        
C3        C        0.9375        0.092592        0.0921325        0        
C4        C        0.9687500000000001        0.037037        0.0921325        0        
C1        C        0.9375        0.12963        0.0921325        0        
C2        C        0.9687500000000001        0.185185        0.0921325        0        
C3        C        0.9375        0.203703        0.0921325        0        
C4        C        0.9687500000000001        0.148148        0.0921325        0        
C1        C        0.9375        0.24074099999999998        0.0921325        0        
C2        C        0.9687500000000001        0.296297        0.0921325        0        
C3        C        0.9375        0.314815        0.0921325        0        
C4        C        0.9687500000000001        0.259259        0.0921325        0        
C1        C        0.9375        0.351852        0.0921325        0        
C2        C        0.9687500000000001        0.407408        0.0921325        0        
C3        C        0.9375        0.42592500000000005        0.0921325        0        
C4        C        0.9687500000000001        0.37037        0.0921325        0        
C1        C        0.9375        0.46296300000000007        0.0921325        0        
C2        C        0.9687500000000001        0.518519        0.0921325        0        
C3        C        0.9375        0.537037        0.0921325        0        
C4        C        0.9687500000000001        0.481481        0.0921325        0        
C1        C        0.9375        0.574075        0.0921325        0        
C2        C        0.9687500000000001        0.62963        0.0921325        0        
C3        C        0.9375        0.648148        0.0921325        0        
C4        C        0.9687500000000001        0.592592        0.0921325        0        
C1        C        0.0        0.685186        0.0921325        0        
C1        C        0.0625        0.685186        0.0921325        0        
C1        C        0.125        0.685186        0.0921325        0        
C1        C        0.1875        0.685186        0.0921325        0        
C1        C        0.25        0.685186        0.0921325        0        
C1        C        0.3125        0.685186        0.0921325        0        
C1        C        0.375        0.685186        0.0921325        0        
C1        C        0.4375        0.685186        0.0921325        0        
C1        C        0.5        0.685186        0.0921325        0        
C1        C        0.5625        0.685186        0.0921325        0        
C1        C        0.625        0.685186        0.0921325        0        
C1        C        0.6875        0.685186        0.0921325        0        
C1        C        0.75        0.685186        0.0921325        0        
C1        C        0.8125        0.685186        0.0921325        0        
C1        C        0.875        0.685186        0.0921325        0        
C1        C        0.9375        0.685186        0.0921325        0        
C2        C        0.03125        0.740741        0.0921325        0        
C2        C        0.09375        0.740741        0.0921325        0        
C2        C        0.15625        0.740741        0.0921325        0        
C2        C        0.21875        0.740741        0.0921325        0        
C2        C        0.28125        0.740741        0.0921325        0        
C2        C        0.34375        0.740741        0.0921325        0        
C2        C        0.40625        0.740741        0.0921325        0        
C2        C        0.46875        0.740741        0.0921325        0        
C2        C        0.53125        0.740741        0.0921325        0        
C2        C        0.59375        0.740741        0.0921325        0        
C2        C        0.65625        0.740741        0.0921325        0        
C2        C        0.71875        0.740741        0.0921325        0        
C2        C        0.78125        0.740741        0.0921325        0        
C2        C        0.84375        0.740741        0.0921325        0        
C2        C        0.9062500000000001        0.740741        0.0921325        0        
C2        C        0.9687500000000001        0.740741        0.0921325        0        
C3        C        0.0        0.759259        0.0921325        0        
C3        C        0.0625        0.759259        0.0921325        0        
C3        C        0.125        0.759259        0.0921325        0        
C3        C        0.1875        0.759259        0.0921325        0        
C3        C        0.25        0.759259        0.0921325        0        
C3        C        0.3125        0.759259        0.0921325        0        
C3        C        0.375        0.759259        0.0921325        0        
C3        C        0.4375        0.759259        0.0921325        0        
C3        C        0.5        0.759259        0.0921325        0        
C3        C        0.5625        0.759259        0.0921325        0        
C3        C        0.625        0.759259        0.0921325        0        
C3        C        0.6875        0.759259        0.0921325        0        
C3        C        0.75        0.759259        0.0921325        0        
C3        C        0.8125        0.759259        0.0921325        0        
C3        C        0.875        0.759259        0.0921325        0        
C3        C        0.9375        0.759259        0.0921325        0        
C4        C        0.03125        0.703703        0.0921325        0        
C4        C        0.09375        0.703703        0.0921325        0        
C4        C        0.15625        0.703703        0.0921325        0        
C4        C        0.21875        0.703703        0.0921325        0        
C4        C        0.28125        0.703703        0.0921325        0        
C4        C        0.34375        0.703703        0.0921325        0        
C4        C        0.40625        0.703703        0.0921325        0        
C4        C        0.46875        0.703703        0.0921325        0        
C4        C        0.53125        0.703703        0.0921325        0        
C4        C        0.59375        0.703703        0.0921325        0        
C4        C        0.65625        0.703703        0.0921325        0        
C4        C        0.71875        0.703703        0.0921325        0        
C4        C        0.78125        0.703703        0.0921325        0        
C4        C        0.84375        0.703703        0.0921325        0        
C4        C        0.9062500000000001        0.703703        0.0921325        0        
C4        C        0.9687500000000001        0.703703        0.0921325        0        
C1        C        0.0        0.796297        0.0921325        0        
C1        C        0.0625        0.796297        0.0921325        0        
C1        C        0.125        0.796297        0.0921325        0        
C1        C        0.1875        0.796297        0.0921325        0        
C1        C        0.25        0.796297        0.0921325        0        
C1        C        0.3125        0.796297        0.0921325        0        
C1        C        0.375        0.796297        0.0921325        0        
C1        C        0.4375        0.796297        0.0921325        0        
C1        C        0.5        0.796297        0.0921325        0        
C1        C        0.5625        0.796297        0.0921325        0        
C1        C        0.625        0.796297        0.0921325        0        
C1        C        0.6875        0.796297        0.0921325        0        
C1        C        0.75        0.796297        0.0921325        0        
C1        C        0.8125        0.796297        0.0921325        0        
C1        C        0.875        0.796297        0.0921325        0        
C1        C        0.9375        0.796297        0.0921325        0        
C2        C        0.03125        0.851852        0.0921325        0        
C2        C        0.09375        0.851852        0.0921325        0        
C2        C        0.15625        0.851852        0.0921325        0        
C2        C        0.21875        0.851852        0.0921325        0        
C2        C        0.28125        0.851852        0.0921325        0        
C2        C        0.34375        0.851852        0.0921325        0        
C2        C        0.40625        0.851852        0.0921325        0        
C2        C        0.46875        0.851852        0.0921325        0        
C2        C        0.53125        0.851852        0.0921325        0        
C2        C        0.59375        0.851852        0.0921325        0        
C2        C        0.65625        0.851852        0.0921325        0        
C2        C        0.71875        0.851852        0.0921325        0        
C2        C        0.78125        0.851852        0.0921325        0        
C2        C        0.84375        0.851852        0.0921325        0        
C2        C        0.9062500000000001        0.851852        0.0921325        0        
C2        C        0.9687500000000001        0.851852        0.0921325        0        
C3        C        0.0        0.87037        0.0921325        0        
C3        C        0.0625        0.87037        0.0921325        0        
C3        C        0.125        0.87037        0.0921325        0        
C3        C        0.1875        0.87037        0.0921325        0        
C3        C        0.25        0.87037        0.0921325        0        
C3        C        0.3125        0.87037        0.0921325        0        
C3        C        0.375        0.87037        0.0921325        0        
C3        C        0.4375        0.87037        0.0921325        0        
C3        C        0.5        0.87037        0.0921325        0        
C3        C        0.5625        0.87037        0.0921325        0        
C3        C        0.625        0.87037        0.0921325        0        
C3        C        0.6875        0.87037        0.0921325        0        
C3        C        0.75        0.87037        0.0921325        0        
C3        C        0.8125        0.87037        0.0921325        0        
C3        C        0.875        0.87037        0.0921325        0        
C3        C        0.9375        0.87037        0.0921325        0        
C4        C        0.03125        0.814814        0.0921325        0        
C4        C        0.09375        0.814814        0.0921325        0        
C4        C        0.15625        0.814814        0.0921325        0        
C4        C        0.21875        0.814814        0.0921325        0        
C4        C        0.28125        0.814814        0.0921325        0        
C4        C        0.34375        0.814814        0.0921325        0        
C4        C        0.40625        0.814814        0.0921325        0        
C4        C        0.46875        0.814814        0.0921325        0        
C4        C        0.53125        0.814814        0.0921325        0        
C4        C        0.59375        0.814814        0.0921325        0        
C4        C        0.65625        0.814814        0.0921325        0        
C4        C        0.71875        0.814814        0.0921325        0        
C4        C        0.78125        0.814814        0.0921325        0        
C4        C        0.84375        0.814814        0.0921325        0        
C4        C        0.9062500000000001        0.814814        0.0921325        0        
C4        C        0.9687500000000001        0.814814        0.0921325        0        
C1        C        0.0        0.907408        0.0921325        0        
C1        C        0.0625        0.907408        0.0921325        0        
C1        C        0.125        0.907408        0.0921325        0        
C1        C        0.1875        0.907408        0.0921325        0        
C1        C        0.25        0.907408        0.0921325        0        
C1        C        0.3125        0.907408        0.0921325        0        
C1        C        0.375        0.907408        0.0921325        0        
C1        C        0.4375        0.907408        0.0921325        0        
C1        C        0.5        0.907408        0.0921325        0        
C1        C        0.5625        0.907408        0.0921325        0        
C1        C        0.625        0.907408        0.0921325        0        
C1        C        0.6875        0.907408        0.0921325        0        
C1        C        0.75        0.907408        0.0921325        0        
C1        C        0.8125        0.907408        0.0921325        0        
C1        C        0.875        0.907408        0.0921325        0        
C1        C        0.9375        0.907408        0.0921325        0        
C2        C        0.03125        0.962963        0.0921325        0        
C2        C        0.09375        0.962963        0.0921325        0        
C2        C        0.15625        0.962963        0.0921325        0        
C2        C        0.21875        0.962963        0.0921325        0        
C2        C        0.28125        0.962963        0.0921325        0        
C2        C        0.34375        0.962963        0.0921325        0        
C2        C        0.40625        0.962963        0.0921325        0        
C2        C        0.46875        0.962963        0.0921325        0        
C2        C        0.53125        0.962963        0.0921325        0        
C2        C        0.59375        0.962963        0.0921325        0        
C2        C        0.65625        0.962963        0.0921325        0        
C2        C        0.71875        0.962963        0.0921325        0        
C2        C        0.78125        0.962963        0.0921325        0        
C2        C        0.84375        0.962963        0.0921325        0        
C2        C        0.9062500000000001        0.962963        0.0921325        0        
C2        C        0.9687500000000001        0.962963        0.0921325        0        
C3        C        0.0        0.9814809999999999        0.0921325        0        
C3        C        0.0625        0.9814809999999999        0.0921325        0        
C3        C        0.125        0.9814809999999999        0.0921325        0        
C3        C        0.1875        0.9814809999999999        0.0921325        0        
C3        C        0.25        0.9814809999999999        0.0921325        0        
C3        C        0.3125        0.9814809999999999        0.0921325        0        
C3        C        0.375        0.9814809999999999        0.0921325        0        
C3        C        0.4375        0.9814809999999999        0.0921325        0        
C3        C        0.5        0.9814809999999999        0.0921325        0        
C3        C        0.5625        0.9814809999999999        0.0921325        0        
C3        C        0.625        0.9814809999999999        0.0921325        0        
C3        C        0.6875        0.9814809999999999        0.0921325        0        
C3        C        0.75        0.9814809999999999        0.0921325        0        
C3        C        0.8125        0.9814809999999999        0.0921325        0        
C3        C        0.875        0.9814809999999999        0.0921325        0        
C3        C        0.9375        0.9814809999999999        0.0921325        0        
C4        C        0.03125        0.925925        0.0921325        0        
C4        C        0.09375        0.925925        0.0921325        0        
C4        C        0.15625        0.925925        0.0921325        0        
C4        C        0.21875        0.925925        0.0921325        0        
C4        C        0.28125        0.925925        0.0921325        0        
C4        C        0.34375        0.925925        0.0921325        0        
C4        C        0.40625        0.925925        0.0921325        0        
C4        C        0.46875        0.925925        0.0921325        0        
C4        C        0.53125        0.925925        0.0921325        0        
C4        C        0.59375        0.925925        0.0921325        0        
C4        C        0.65625        0.925925        0.0921325        0        
C4        C        0.71875        0.925925        0.0921325        0        
C4        C        0.78125        0.925925        0.0921325        0        
C4        C        0.84375        0.925925        0.0921325        0        
C4        C        0.9062500000000001        0.925925        0.0921325        0        
C4        C        0.9687500000000001        0.925925        0.0921325        0        
C1        C        0.0        0.018519        0.2250695        0        
C2        C        0.03125        0.074075        0.2250695        0        
C3        C        0.0        0.092592        0.2250695        0        
C4        C        0.03125        0.037037        0.2250695        0        
C1        C        0.0        0.12963        0.2250695        0        
C2        C        0.03125        0.185185        0.2250695        0        
C3        C        0.0        0.203703        0.2250695        0        
C4        C        0.03125        0.148148        0.2250695        0        
C1        C        0.0        0.24074099999999998        0.2250695        0        
C2        C        0.03125        0.296297        0.2250695        0        
C3        C        0.0        0.314815        0.2250695        0        
C4        C        0.03125        0.259259        0.2250695        0        
C1        C        0.0        0.351852        0.2250695        0        
C2        C        0.03125        0.407408        0.2250695        0        
C3        C        0.0        0.42592500000000005        0.2250695        0        
C4        C        0.03125        0.37037        0.2250695        0        
C1        C        0.0        0.46296300000000007        0.2250695        0        
C2        C        0.03125        0.518519        0.2250695        0        
C3        C        0.0        0.537037        0.2250695        0        
C4        C        0.03125        0.481481        0.2250695        0        
C1        C        0.0        0.574075        0.2250695        0        
C2        C        0.03125        0.62963        0.2250695        0        
C3        C        0.0        0.648148        0.2250695        0        
C4        C        0.03125        0.592592        0.2250695        0        
C1        C        0.0625        0.018519        0.2250695        0        
C2        C        0.09375        0.074075        0.2250695        0        
C3        C        0.0625        0.092592        0.2250695        0        
C4        C        0.09375        0.037037        0.2250695        0        
C1        C        0.0625        0.12963        0.2250695        0        
C2        C        0.09375        0.185185        0.2250695        0        
C3        C        0.0625        0.203703        0.2250695        0        
C4        C        0.09375        0.148148        0.2250695        0        
C1        C        0.0625        0.24074099999999998        0.2250695        0        
C2        C        0.09375        0.296297        0.2250695        0        
C3        C        0.0625        0.314815        0.2250695        0        
C4        C        0.09375        0.259259        0.2250695        0        
C1        C        0.0625        0.351852        0.2250695        0        
C2        C        0.09375        0.407408        0.2250695        0        
C3        C        0.0625        0.42592500000000005        0.2250695        0        
C4        C        0.09375        0.37037        0.2250695        0        
C1        C        0.0625        0.46296300000000007        0.2250695        0        
C2        C        0.09375        0.518519        0.2250695        0        
C3        C        0.0625        0.537037        0.2250695        0        
C4        C        0.09375        0.481481        0.2250695        0        
C1        C        0.0625        0.574075        0.2250695        0        
C2        C        0.09375        0.62963        0.2250695        0        
C3        C        0.0625        0.648148        0.2250695        0        
C4        C        0.09375        0.592592        0.2250695        0        
C1        C        0.125        0.018519        0.2250695        0        
C2        C        0.15625        0.074075        0.2250695        0        
C3        C        0.125        0.092592        0.2250695        0        
C4        C        0.15625        0.037037        0.2250695        0        
C1        C        0.125        0.12963        0.2250695        0        
C2        C        0.15625        0.185185        0.2250695        0        
C3        C        0.125        0.203703        0.2250695        0        
C4        C        0.15625        0.148148        0.2250695        0        
C1        C        0.125        0.24074099999999998        0.2250695        0        
C2        C        0.15625        0.296297        0.2250695        0        
C3        C        0.125        0.314815        0.2250695        0        
C4        C        0.15625        0.259259        0.2250695        0        
C1        C        0.125        0.351852        0.2250695        0        
C2        C        0.15625        0.407408        0.2250695        0        
C3        C        0.125        0.42592500000000005        0.2250695        0        
C4        C        0.15625        0.37037        0.2250695        0        
C1        C        0.125        0.46296300000000007        0.2250695        0        
C2        C        0.15625        0.518519        0.2250695        0        
C3        C        0.125        0.537037        0.2250695        0        
C4        C        0.15625        0.481481        0.2250695        0        
C1        C        0.125        0.574075        0.2250695        0        
C2        C        0.15625        0.62963        0.2250695        0        
C3        C        0.125        0.648148        0.2250695        0        
C4        C        0.15625        0.592592        0.2250695        0        
C1        C        0.1875        0.018519        0.2250695        0        
C2        C        0.21875        0.074075        0.2250695        0        
C3        C        0.1875        0.092592        0.2250695        0        
C4        C        0.21875        0.037037        0.2250695        0        
C1        C        0.1875        0.12963        0.2250695        0        
C2        C        0.21875        0.185185        0.2250695        0        
C3        C        0.1875        0.203703        0.2250695        0        
C4        C        0.21875        0.148148        0.2250695        0        
C1        C        0.1875        0.24074099999999998        0.2250695        0        
C2        C        0.21875        0.296297        0.2250695        0        
C3        C        0.1875        0.314815        0.2250695        0        
C4        C        0.21875        0.259259        0.2250695        0        
C1        C        0.1875        0.351852        0.2250695        0        
C2        C        0.21875        0.407408        0.2250695        0        
C3        C        0.1875        0.42592500000000005        0.2250695        0        
C4        C        0.21875        0.37037        0.2250695        0        
C1        C        0.1875        0.46296300000000007        0.2250695        0        
C2        C        0.21875        0.518519        0.2250695        0        
C3        C        0.1875        0.537037        0.2250695        0        
C4        C        0.21875        0.481481        0.2250695        0        
C1        C        0.1875        0.574075        0.2250695        0        
C2        C        0.21875        0.62963        0.2250695        0        
C3        C        0.1875        0.648148        0.2250695        0        
C4        C        0.21875        0.592592        0.2250695        0        
C1        C        0.25        0.018519        0.2250695        0        
C2        C        0.28125        0.074075        0.2250695        0        
C3        C        0.25        0.092592        0.2250695        0        
C4        C        0.28125        0.037037        0.2250695        0        
C1        C        0.25        0.12963        0.2250695        0        
C2        C        0.28125        0.185185        0.2250695        0        
C3        C        0.25        0.203703        0.2250695        0        
C4        C        0.28125        0.148148        0.2250695        0        
C1        C        0.25        0.24074099999999998        0.2250695        0        
C2        C        0.28125        0.296297        0.2250695        0        
C3        C        0.25        0.314815        0.2250695        0        
C4        C        0.28125        0.259259        0.2250695        0        
C1        C        0.25        0.351852        0.2250695        0        
C2        C        0.28125        0.407408        0.2250695        0        
C3        C        0.25        0.42592500000000005        0.2250695        0        
C4        C        0.28125        0.37037        0.2250695        0        
C1        C        0.25        0.46296300000000007        0.2250695        0        
C2        C        0.28125        0.518519        0.2250695        0        
C3        C        0.25        0.537037        0.2250695        0        
C4        C        0.28125        0.481481        0.2250695        0        
C1        C        0.25        0.574075        0.2250695        0        
C2        C        0.28125        0.62963        0.2250695        0        
C3        C        0.25        0.648148        0.2250695        0        
C4        C        0.28125        0.592592        0.2250695        0        
C1        C        0.3125        0.018519        0.2250695        0        
C2        C        0.34375        0.074075        0.2250695        0        
C3        C        0.3125        0.092592        0.2250695        0        
C4        C        0.34375        0.037037        0.2250695        0        
C1        C        0.3125        0.12963        0.2250695        0        
C2        C        0.34375        0.185185        0.2250695        0        
C3        C        0.3125        0.203703        0.2250695        0        
C4        C        0.34375        0.148148        0.2250695        0        
C1        C        0.3125        0.24074099999999998        0.2250695        0        
C2        C        0.34375        0.296297        0.2250695        0        
C3        C        0.3125        0.314815        0.2250695        0        
C4        C        0.34375        0.259259        0.2250695        0        
C1        C        0.3125        0.351852        0.2250695        0        
C2        C        0.34375        0.407408        0.2250695        0        
C3        C        0.3125        0.42592500000000005        0.2250695        0        
C4        C        0.34375        0.37037        0.2250695        0        
C1        C        0.3125        0.46296300000000007        0.2250695        0        
C2        C        0.34375        0.518519        0.2250695        0        
C3        C        0.3125        0.537037        0.2250695        0        
C4        C        0.34375        0.481481        0.2250695        0        
C1        C        0.3125        0.574075        0.2250695        0        
C2        C        0.34375        0.62963        0.2250695        0        
C3        C        0.3125        0.648148        0.2250695        0        
C4        C        0.34375        0.592592        0.2250695        0        
C1        C        0.375        0.018519        0.2250695        0        
C2        C        0.40625        0.074075        0.2250695        0        
C3        C        0.375        0.092592        0.2250695        0        
C4        C        0.40625        0.037037        0.2250695        0        
C1        C        0.375        0.12963        0.2250695        0        
C2        C        0.40625        0.185185        0.2250695        0        
C3        C        0.375        0.203703        0.2250695        0        
C4        C        0.40625        0.148148        0.2250695        0        
C1        C        0.375        0.24074099999999998        0.2250695        0        
C2        C        0.40625        0.296297        0.2250695        0        
C3        C        0.375        0.314815        0.2250695        0        
C4        C        0.40625        0.259259        0.2250695        0        
C1        C        0.375        0.351852        0.2250695        0        
C2        C        0.40625        0.407408        0.2250695        0        
C3        C        0.375        0.42592500000000005        0.2250695        0        
C4        C        0.40625        0.37037        0.2250695        0        
C1        C        0.375        0.46296300000000007        0.2250695        0        
C2        C        0.40625        0.518519        0.2250695        0        
C3        C        0.375        0.537037        0.2250695        0        
C4        C        0.40625        0.481481        0.2250695        0        
C1        C        0.375        0.574075        0.2250695        0        
C2        C        0.40625        0.62963        0.2250695        0        
C3        C        0.375        0.648148        0.2250695        0        
C4        C        0.40625        0.592592        0.2250695        0        
C1        C        0.4375        0.018519        0.2250695        0        
C2        C        0.46875        0.074075        0.2250695        0        
C3        C        0.4375        0.092592        0.2250695        0        
C4        C        0.46875        0.037037        0.2250695        0        
C1        C        0.4375        0.12963        0.2250695        0        
C2        C        0.46875        0.185185        0.2250695        0        
C3        C        0.4375        0.203703        0.2250695        0        
C4        C        0.46875        0.148148        0.2250695        0        
C1        C        0.4375        0.24074099999999998        0.2250695        0        
C2        C        0.46875        0.296297        0.2250695        0        
C3        C        0.4375        0.314815        0.2250695        0        
C4        C        0.46875        0.259259        0.2250695        0        
C1        C        0.4375        0.351852        0.2250695        0        
C2        C        0.46875        0.407408        0.2250695        0        
C3        C        0.4375        0.42592500000000005        0.2250695        0        
C4        C        0.46875        0.37037        0.2250695        0        
C1        C        0.4375        0.46296300000000007        0.2250695        0        
C2        C        0.46875        0.518519        0.2250695        0        
C3        C        0.4375        0.537037        0.2250695        0        
C4        C        0.46875        0.481481        0.2250695        0        
C1        C        0.4375        0.574075        0.2250695        0        
C2        C        0.46875        0.62963        0.2250695        0        
C3        C        0.4375        0.648148        0.2250695        0        
C4        C        0.46875        0.592592        0.2250695        0        
C1        C        0.5        0.018519        0.2250695        0        
C2        C        0.53125        0.074075        0.2250695        0        
C3        C        0.5        0.092592        0.2250695        0        
C4        C        0.53125        0.037037        0.2250695        0        
C1        C        0.5        0.12963        0.2250695        0        
C2        C        0.53125        0.185185        0.2250695        0        
C3        C        0.5        0.203703        0.2250695        0        
C4        C        0.53125        0.148148        0.2250695        0        
C1        C        0.5        0.24074099999999998        0.2250695        0        
C2        C        0.53125        0.296297        0.2250695        0        
C3        C        0.5        0.314815        0.2250695        0        
C4        C        0.53125        0.259259        0.2250695        0        
C1        C        0.5        0.351852        0.2250695        0        
C2        C        0.53125        0.407408        0.2250695        0        
C3        C        0.5        0.42592500000000005        0.2250695        0        
C4        C        0.53125        0.37037        0.2250695        0        
C1        C        0.5        0.46296300000000007        0.2250695        0        
C2        C        0.53125        0.518519        0.2250695        0        
C3        C        0.5        0.537037        0.2250695        0        
C4        C        0.53125        0.481481        0.2250695        0        
C1        C        0.5        0.574075        0.2250695        0        
C2        C        0.53125        0.62963        0.2250695        0        
C3        C        0.5        0.648148        0.2250695        0        
C4        C        0.53125        0.592592        0.2250695        0        
C1        C        0.5625        0.018519        0.2250695        0        
C2        C        0.59375        0.074075        0.2250695        0        
C3        C        0.5625        0.092592        0.2250695        0        
C4        C        0.59375        0.037037        0.2250695        0        
C1        C        0.5625        0.12963        0.2250695        0        
C2        C        0.59375        0.185185        0.2250695        0        
C3        C        0.5625        0.203703        0.2250695        0        
C4        C        0.59375        0.148148        0.2250695        0        
C1        C        0.5625        0.24074099999999998        0.2250695        0        
C2        C        0.59375        0.296297        0.2250695        0        
C3        C        0.5625        0.314815        0.2250695        0        
C4        C        0.59375        0.259259        0.2250695        0        
C1        C        0.5625        0.351852        0.2250695        0        
C2        C        0.59375        0.407408        0.2250695        0        
C3        C        0.5625        0.42592500000000005        0.2250695        0        
C4        C        0.59375        0.37037        0.2250695        0        
C1        C        0.5625        0.46296300000000007        0.2250695        0        
C2        C        0.59375        0.518519        0.2250695        0        
C3        C        0.5625        0.537037        0.2250695        0        
C4        C        0.59375        0.481481        0.2250695        0        
C1        C        0.5625        0.574075        0.2250695        0        
C2        C        0.59375        0.62963        0.2250695        0        
C3        C        0.5625        0.648148        0.2250695        0        
C4        C        0.59375        0.592592        0.2250695        0        
C1        C        0.625        0.018519        0.2250695        0        
C2        C        0.65625        0.074075        0.2250695        0        
C3        C        0.625        0.092592        0.2250695        0        
C4        C        0.65625        0.037037        0.2250695        0        
C1        C        0.625        0.12963        0.2250695        0        
C2        C        0.65625        0.185185        0.2250695        0        
C3        C        0.625        0.203703        0.2250695        0        
C4        C        0.65625        0.148148        0.2250695        0        
C1        C        0.625        0.24074099999999998        0.2250695        0        
C2        C        0.65625        0.296297        0.2250695        0        
C3        C        0.625        0.314815        0.2250695        0        
C4        C        0.65625        0.259259        0.2250695        0        
C1        C        0.625        0.351852        0.2250695        0        
C2        C        0.65625        0.407408        0.2250695        0        
C3        C        0.625        0.42592500000000005        0.2250695        0        
C4        C        0.65625        0.37037        0.2250695        0        
C1        C        0.625        0.46296300000000007        0.2250695        0        
C2        C        0.65625        0.518519        0.2250695        0        
C3        C        0.625        0.537037        0.2250695        0        
C4        C        0.65625        0.481481        0.2250695        0        
C1        C        0.625        0.574075        0.2250695        0        
C2        C        0.65625        0.62963        0.2250695        0        
C3        C        0.625        0.648148        0.2250695        0        
C4        C        0.65625        0.592592        0.2250695        0        
C1        C        0.6875        0.018519        0.2250695        0        
C2        C        0.71875        0.074075        0.2250695        0        
C3        C        0.6875        0.092592        0.2250695        0        
C4        C        0.71875        0.037037        0.2250695        0        
C1        C        0.6875        0.12963        0.2250695        0        
C2        C        0.71875        0.185185        0.2250695        0        
C3        C        0.6875        0.203703        0.2250695        0        
C4        C        0.71875        0.148148        0.2250695        0        
C1        C        0.6875        0.24074099999999998        0.2250695        0        
C2        C        0.71875        0.296297        0.2250695        0        
C3        C        0.6875        0.314815        0.2250695        0        
C4        C        0.71875        0.259259        0.2250695        0        
C1        C        0.6875        0.351852        0.2250695        0        
C2        C        0.71875        0.407408        0.2250695        0        
C3        C        0.6875        0.42592500000000005        0.2250695        0        
C4        C        0.71875        0.37037        0.2250695        0        
C1        C        0.6875        0.46296300000000007        0.2250695        0        
C2        C        0.71875        0.518519        0.2250695        0        
C3        C        0.6875        0.537037        0.2250695        0        
C4        C        0.71875        0.481481        0.2250695        0        
C1        C        0.6875        0.574075        0.2250695        0        
C2        C        0.71875        0.62963        0.2250695        0        
C3        C        0.6875        0.648148        0.2250695        0        
C4        C        0.71875        0.592592        0.2250695        0        
C1        C        0.75        0.018519        0.2250695        0        
C2        C        0.78125        0.074075        0.2250695        0        
C3        C        0.75        0.092592        0.2250695        0        
C4        C        0.78125        0.037037        0.2250695        0        
C1        C        0.75        0.12963        0.2250695        0        
C2        C        0.78125        0.185185        0.2250695        0        
C3        C        0.75        0.203703        0.2250695        0        
C4        C        0.78125        0.148148        0.2250695        0        
C1        C        0.75        0.24074099999999998        0.2250695        0        
C2        C        0.78125        0.296297        0.2250695        0        
C3        C        0.75        0.314815        0.2250695        0        
C4        C        0.78125        0.259259        0.2250695        0        
C1        C        0.75        0.351852        0.2250695        0        
C2        C        0.78125        0.407408        0.2250695        0        
C3        C        0.75        0.42592500000000005        0.2250695        0        
C4        C        0.78125        0.37037        0.2250695        0        
C1        C        0.75        0.46296300000000007        0.2250695        0        
C2        C        0.78125        0.518519        0.2250695        0        
C3        C        0.75        0.537037        0.2250695        0        
C4        C        0.78125        0.481481        0.2250695        0        
C1        C        0.75        0.574075        0.2250695        0        
C2        C        0.78125        0.62963        0.2250695        0        
C3        C        0.75        0.648148        0.2250695        0        
C4        C        0.78125        0.592592        0.2250695        0        
C1        C        0.8125        0.018519        0.2250695        0        
C2        C        0.84375        0.074075        0.2250695        0        
C3        C        0.8125        0.092592        0.2250695        0        
C4        C        0.84375        0.037037        0.2250695        0        
C1        C        0.8125        0.12963        0.2250695        0        
C2        C        0.84375        0.185185        0.2250695        0        
C3        C        0.8125        0.203703        0.2250695        0        
C4        C        0.84375        0.148148        0.2250695        0        
C1        C        0.8125        0.24074099999999998        0.2250695        0        
C2        C        0.84375        0.296297        0.2250695        0        
C3        C        0.8125        0.314815        0.2250695        0        
C4        C        0.84375        0.259259        0.2250695        0        
C1        C        0.8125        0.351852        0.2250695        0        
C2        C        0.84375        0.407408        0.2250695        0        
C3        C        0.8125        0.42592500000000005        0.2250695        0        
C4        C        0.84375        0.37037        0.2250695        0        
C1        C        0.8125        0.46296300000000007        0.2250695        0        
C2        C        0.84375        0.518519        0.2250695        0        
C3        C        0.8125        0.537037        0.2250695        0        
C4        C        0.84375        0.481481        0.2250695        0        
C1        C        0.8125        0.574075        0.2250695        0        
C2        C        0.84375        0.62963        0.2250695        0        
C3        C        0.8125        0.648148        0.2250695        0        
C4        C        0.84375        0.592592        0.2250695        0        
C1        C        0.875        0.018519        0.2250695        0        
C2        C        0.9062500000000001        0.074075        0.2250695        0        
C3        C        0.875        0.092592        0.2250695        0        
C4        C        0.9062500000000001        0.037037        0.2250695        0        
C1        C        0.875        0.12963        0.2250695        0        
C2        C        0.9062500000000001        0.185185        0.2250695        0        
C3        C        0.875        0.203703        0.2250695        0        
C4        C        0.9062500000000001        0.148148        0.2250695        0        
C1        C        0.875        0.24074099999999998        0.2250695        0        
C2        C        0.9062500000000001        0.296297        0.2250695        0        
C3        C        0.875        0.314815        0.2250695        0        
C4        C        0.9062500000000001        0.259259        0.2250695        0        
C1        C        0.875        0.351852        0.2250695        0        
C2        C        0.9062500000000001        0.407408        0.2250695        0        
C3        C        0.875        0.42592500000000005        0.2250695        0        
C4        C        0.9062500000000001        0.37037        0.2250695        0        
C1        C        0.875        0.46296300000000007        0.2250695        0        
C2        C        0.9062500000000001        0.518519        0.2250695        0        
C3        C        0.875        0.537037        0.2250695        0        
C4        C        0.9062500000000001        0.481481        0.2250695        0        
C1        C        0.875        0.574075        0.2250695        0        
C2        C        0.9062500000000001        0.62963        0.2250695        0        
C3        C        0.875        0.648148        0.2250695        0        
C4        C        0.9062500000000001        0.592592        0.2250695        0        
C1        C        0.9375        0.018519        0.2250695        0        
C2        C        0.9687500000000001        0.074075        0.2250695        0        
C3        C        0.9375        0.092592        0.2250695        0        
C4        C        0.9687500000000001        0.037037        0.2250695        0        
C1        C        0.9375        0.12963        0.2250695        0        
C2        C        0.9687500000000001        0.185185        0.2250695        0        
C3        C        0.9375        0.203703        0.2250695        0        
C4        C        0.9687500000000001        0.148148        0.2250695        0        
C1        C        0.9375        0.24074099999999998        0.2250695        0        
C2        C        0.9687500000000001        0.296297        0.2250695        0        
C3        C        0.9375        0.314815        0.2250695        0        
C4        C        0.9687500000000001        0.259259        0.2250695        0        
C1        C        0.9375        0.351852        0.2250695        0        
C2        C        0.9687500000000001        0.407408        0.2250695        0        
C3        C        0.9375        0.42592500000000005        0.2250695        0        
C4        C        0.9687500000000001        0.37037        0.2250695        0        
C1        C        0.9375        0.46296300000000007        0.2250695        0        
C2        C        0.9687500000000001        0.518519        0.2250695        0        
C3        C        0.9375        0.537037        0.2250695        0        
C4        C        0.9687500000000001        0.481481        0.2250695        0        
C1        C        0.9375        0.574075        0.2250695        0        
C2        C        0.9687500000000001        0.62963        0.2250695        0        
C3        C        0.9375        0.648148        0.2250695        0        
C4        C        0.9687500000000001        0.592592        0.2250695        0        
C1        C        0.0        0.685186        0.2250695        0        
C1        C        0.0625        0.685186        0.2250695        0        
C1        C        0.125        0.685186        0.2250695        0        
C1        C        0.1875        0.685186        0.2250695        0        
C1        C        0.25        0.685186        0.2250695        0        
C1        C        0.3125        0.685186        0.2250695        0        
C1        C        0.375        0.685186        0.2250695        0        
C1        C        0.4375        0.685186        0.2250695        0        
C1        C        0.5        0.685186        0.2250695        0        
C1        C        0.5625        0.685186        0.2250695        0        
C1        C        0.625        0.685186        0.2250695        0        
C1        C        0.6875        0.685186        0.2250695        0        
C1        C        0.75        0.685186        0.2250695        0        
C1        C        0.8125        0.685186        0.2250695        0        
C1        C        0.875        0.685186        0.2250695        0        
C1        C        0.9375        0.685186        0.2250695        0        
C2        C        0.03125        0.740741        0.2250695        0        
C2        C        0.09375        0.740741        0.2250695        0        
C2        C        0.15625        0.740741        0.2250695        0        
C2        C        0.21875        0.740741        0.2250695        0        
C2        C        0.28125        0.740741        0.2250695        0        
C2        C        0.34375        0.740741        0.2250695        0        
C2        C        0.40625        0.740741        0.2250695        0        
C2        C        0.46875        0.740741        0.2250695        0        
C2        C        0.53125        0.740741        0.2250695        0        
C2        C        0.59375        0.740741        0.2250695        0        
C2        C        0.65625        0.740741        0.2250695        0        
C2        C        0.71875        0.740741        0.2250695        0        
C2        C        0.78125        0.740741        0.2250695        0        
C2        C        0.84375        0.740741        0.2250695        0        
C2        C        0.9062500000000001        0.740741        0.2250695        0        
C2        C        0.9687500000000001        0.740741        0.2250695        0        
C3        C        0.0        0.759259        0.2250695        0        
C3        C        0.0625        0.759259        0.2250695        0        
C3        C        0.125        0.759259        0.2250695        0        
C3        C        0.1875        0.759259        0.2250695        0        
C3        C        0.25        0.759259        0.2250695        0        
C3        C        0.3125        0.759259        0.2250695        0        
C3        C        0.375        0.759259        0.2250695        0        
C3        C        0.4375        0.759259        0.2250695        0        
C3        C        0.5        0.759259        0.2250695        0        
C3        C        0.5625        0.759259        0.2250695        0        
C3        C        0.625        0.759259        0.2250695        0        
C3        C        0.6875        0.759259        0.2250695        0        
C3        C        0.75        0.759259        0.2250695        0        
C3        C        0.8125        0.759259        0.2250695        0        
C3        C        0.875        0.759259        0.2250695        0        
C3        C        0.9375        0.759259        0.2250695        0        
C4        C        0.03125        0.703703        0.2250695        0        
C4        C        0.09375        0.703703        0.2250695        0        
C4        C        0.15625        0.703703        0.2250695        0        
C4        C        0.21875        0.703703        0.2250695        0        
C4        C        0.28125        0.703703        0.2250695        0        
C4        C        0.34375        0.703703        0.2250695        0        
C4        C        0.40625        0.703703        0.2250695        0        
C4        C        0.46875        0.703703        0.2250695        0        
C4        C        0.53125        0.703703        0.2250695        0        
C4        C        0.59375        0.703703        0.2250695        0        
C4        C        0.65625        0.703703        0.2250695        0        
C4        C        0.71875        0.703703        0.2250695        0        
C4        C        0.78125        0.703703        0.2250695        0        
C4        C        0.84375        0.703703        0.2250695        0        
C4        C        0.9062500000000001        0.703703        0.2250695        0        
C4        C        0.9687500000000001        0.703703        0.2250695        0        
C1        C        0.0        0.796297        0.2250695        0        
C1        C        0.0625        0.796297        0.2250695        0        
C1        C        0.125        0.796297        0.2250695        0        
C1        C        0.1875        0.796297        0.2250695        0        
C1        C        0.25        0.796297        0.2250695        0        
C1        C        0.3125        0.796297        0.2250695        0        
C1        C        0.375        0.796297        0.2250695        0        
C1        C        0.4375        0.796297        0.2250695        0        
C1        C        0.5        0.796297        0.2250695        0        
C1        C        0.5625        0.796297        0.2250695        0        
C1        C        0.625        0.796297        0.2250695        0        
C1        C        0.6875        0.796297        0.2250695        0        
C1        C        0.75        0.796297        0.2250695        0        
C1        C        0.8125        0.796297        0.2250695        0        
C1        C        0.875        0.796297        0.2250695        0        
C1        C        0.9375        0.796297        0.2250695        0        
C2        C        0.03125        0.851852        0.2250695        0        
C2        C        0.09375        0.851852        0.2250695        0        
C2        C        0.15625        0.851852        0.2250695        0        
C2        C        0.21875        0.851852        0.2250695        0        
C2        C        0.28125        0.851852        0.2250695        0        
C2        C        0.34375        0.851852        0.2250695        0        
C2        C        0.40625        0.851852        0.2250695        0        
C2        C        0.46875        0.851852        0.2250695        0        
C2        C        0.53125        0.851852        0.2250695        0        
C2        C        0.59375        0.851852        0.2250695        0        
C2        C        0.65625        0.851852        0.2250695        0        
C2        C        0.71875        0.851852        0.2250695        0        
C2        C        0.78125        0.851852        0.2250695        0        
C2        C        0.84375        0.851852        0.2250695        0        
C2        C        0.9062500000000001        0.851852        0.2250695        0        
C2        C        0.9687500000000001        0.851852        0.2250695        0        
C3        C        0.0        0.87037        0.2250695        0        
C3        C        0.0625        0.87037        0.2250695        0        
C3        C        0.125        0.87037        0.2250695        0        
C3        C        0.1875        0.87037        0.2250695        0        
C3        C        0.25        0.87037        0.2250695        0        
C3        C        0.3125        0.87037        0.2250695        0        
C3        C        0.375        0.87037        0.2250695        0        
C3        C        0.4375        0.87037        0.2250695        0        
C3        C        0.5        0.87037        0.2250695        0        
C3        C        0.5625        0.87037        0.2250695        0        
C3        C        0.625        0.87037        0.2250695        0        
C3        C        0.6875        0.87037        0.2250695        0        
C3        C        0.75        0.87037        0.2250695        0        
C3        C        0.8125        0.87037        0.2250695        0        
C3        C        0.875        0.87037        0.2250695        0        
C3        C        0.9375        0.87037        0.2250695        0        
C4        C        0.03125        0.814814        0.2250695        0        
C4        C        0.09375        0.814814        0.2250695        0        
C4        C        0.15625        0.814814        0.2250695        0        
C4        C        0.21875        0.814814        0.2250695        0        
C4        C        0.28125        0.814814        0.2250695        0        
C4        C        0.34375        0.814814        0.2250695        0        
C4        C        0.40625        0.814814        0.2250695        0        
C4        C        0.46875        0.814814        0.2250695        0        
C4        C        0.53125        0.814814        0.2250695        0        
C4        C        0.59375        0.814814        0.2250695        0        
C4        C        0.65625        0.814814        0.2250695        0        
C4        C        0.71875        0.814814        0.2250695        0        
C4        C        0.78125        0.814814        0.2250695        0        
C4        C        0.84375        0.814814        0.2250695        0        
C4        C        0.9062500000000001        0.814814        0.2250695        0        
C4        C        0.9687500000000001        0.814814        0.2250695        0        
C1        C        0.0        0.907408        0.2250695        0        
C1        C        0.0625        0.907408        0.2250695        0        
C1        C        0.125        0.907408        0.2250695        0        
C1        C        0.1875        0.907408        0.2250695        0        
C1        C        0.25        0.907408        0.2250695        0        
C1        C        0.3125        0.907408        0.2250695        0        
C1        C        0.375        0.907408        0.2250695        0        
C1        C        0.4375        0.907408        0.2250695        0        
C1        C        0.5        0.907408        0.2250695        0        
C1        C        0.5625        0.907408        0.2250695        0        
C1        C        0.625        0.907408        0.2250695        0        
C1        C        0.6875        0.907408        0.2250695        0        
C1        C        0.75        0.907408        0.2250695        0        
C1        C        0.8125        0.907408        0.2250695        0        
C1        C        0.875        0.907408        0.2250695        0        
C1        C        0.9375        0.907408        0.2250695        0        
C2        C        0.03125        0.962963        0.2250695        0        
C2        C        0.09375        0.962963        0.2250695        0        
C2        C        0.15625        0.962963        0.2250695        0        
C2        C        0.21875        0.962963        0.2250695        0        
C2        C        0.28125        0.962963        0.2250695        0        
C2        C        0.34375        0.962963        0.2250695        0        
C2        C        0.40625        0.962963        0.2250695        0        
C2        C        0.46875        0.962963        0.2250695        0        
C2        C        0.53125        0.962963        0.2250695        0        
C2        C        0.59375        0.962963        0.2250695        0        
C2        C        0.65625        0.962963        0.2250695        0        
C2        C        0.71875        0.962963        0.2250695        0        
C2        C        0.78125        0.962963        0.2250695        0        
C2        C        0.84375        0.962963        0.2250695        0        
C2        C        0.9062500000000001        0.962963        0.2250695        0        
C2        C        0.9687500000000001        0.962963        0.2250695        0        
C3        C        0.0        0.9814809999999999        0.2250695        0        
C3        C        0.0625        0.9814809999999999        0.2250695        0        
C3        C        0.125        0.9814809999999999        0.2250695        0        
C3        C        0.1875        0.9814809999999999        0.2250695        0        
C3        C        0.25        0.9814809999999999        0.2250695        0        
C3        C        0.3125        0.9814809999999999        0.2250695        0        
C3        C        0.375        0.9814809999999999        0.2250695        0        
C3        C        0.4375        0.9814809999999999        0.2250695        0        
C3        C        0.5        0.9814809999999999        0.2250695        0        
C3        C        0.5625        0.9814809999999999        0.2250695        0        
C3        C        0.625        0.9814809999999999        0.2250695        0        
C3        C        0.6875        0.9814809999999999        0.2250695        0        
C3        C        0.75        0.9814809999999999        0.2250695        0        
C3        C        0.8125        0.9814809999999999        0.2250695        0        
C3        C        0.875        0.9814809999999999        0.2250695        0        
C3        C        0.9375        0.9814809999999999        0.2250695        0        
C4        C        0.03125        0.925925        0.2250695        0        
C4        C        0.09375        0.925925        0.2250695        0        
C4        C        0.15625        0.925925        0.2250695        0        
C4        C        0.21875        0.925925        0.2250695        0        
C4        C        0.28125        0.925925        0.2250695        0        
C4        C        0.34375        0.925925        0.2250695        0        
C4        C        0.40625        0.925925        0.2250695        0        
C4        C        0.46875        0.925925        0.2250695        0        
C4        C        0.53125        0.925925        0.2250695        0        
C4        C        0.59375        0.925925        0.2250695        0        
C4        C        0.65625        0.925925        0.2250695        0        
C4        C        0.71875        0.925925        0.2250695        0        
C4        C        0.78125        0.925925        0.2250695        0        
C4        C        0.84375        0.925925        0.2250695        0        
C4        C        0.9062500000000001        0.925925        0.2250695        0        
C4        C        0.9687500000000001        0.925925        0.2250695        0        
C1        C        0.0        0.018519        0.35800550000000003        0        
C2        C        0.03125        0.074075        0.35800550000000003        0        
C3        C        0.0        0.092592        0.35800550000000003        0        
C4        C        0.03125        0.037037        0.35800550000000003        0        
C1        C        0.0        0.12963        0.35800550000000003        0        
C2        C        0.03125        0.185185        0.35800550000000003        0        
C3        C        0.0        0.203703        0.35800550000000003        0        
C4        C        0.03125        0.148148        0.35800550000000003        0        
C1        C        0.0        0.24074099999999998        0.35800550000000003        0        
C2        C        0.03125        0.296297        0.35800550000000003        0        
C3        C        0.0        0.314815        0.35800550000000003        0        
C4        C        0.03125        0.259259        0.35800550000000003        0        
C1        C        0.0        0.351852        0.35800550000000003        0        
C2        C        0.03125        0.407408        0.35800550000000003        0        
C3        C        0.0        0.42592500000000005        0.35800550000000003        0        
C4        C        0.03125        0.37037        0.35800550000000003        0        
C1        C        0.0        0.46296300000000007        0.35800550000000003        0        
C2        C        0.03125        0.518519        0.35800550000000003        0        
C3        C        0.0        0.537037        0.35800550000000003        0        
C4        C        0.03125        0.481481        0.35800550000000003        0        
C1        C        0.0        0.574075        0.35800550000000003        0        
C2        C        0.03125        0.62963        0.35800550000000003        0        
C3        C        0.0        0.648148        0.35800550000000003        0        
C4        C        0.03125        0.592592        0.35800550000000003        0        
C1        C        0.0625        0.018519        0.35800550000000003        0        
C2        C        0.09375        0.074075        0.35800550000000003        0        
C3        C        0.0625        0.092592        0.35800550000000003        0        
C4        C        0.09375        0.037037        0.35800550000000003        0        
C1        C        0.0625        0.12963        0.35800550000000003        0        
C2        C        0.09375        0.185185        0.35800550000000003        0        
C3        C        0.0625        0.203703        0.35800550000000003        0        
C4        C        0.09375        0.148148        0.35800550000000003        0        
C1        C        0.0625        0.24074099999999998        0.35800550000000003        0        
C2        C        0.09375        0.296297        0.35800550000000003        0        
C3        C        0.0625        0.314815        0.35800550000000003        0        
C4        C        0.09375        0.259259        0.35800550000000003        0        
C1        C        0.0625        0.351852        0.35800550000000003        0        
C2        C        0.09375        0.407408        0.35800550000000003        0        
C3        C        0.0625        0.42592500000000005        0.35800550000000003        0        
C4        C        0.09375        0.37037        0.35800550000000003        0        
C1        C        0.0625        0.46296300000000007        0.35800550000000003        0        
C2        C        0.09375        0.518519        0.35800550000000003        0        
C3        C        0.0625        0.537037        0.35800550000000003        0        
C4        C        0.09375        0.481481        0.35800550000000003        0        
C1        C        0.0625        0.574075        0.35800550000000003        0        
C2        C        0.09375        0.62963        0.35800550000000003        0        
C3        C        0.0625        0.648148        0.35800550000000003        0        
C4        C        0.09375        0.592592        0.35800550000000003        0        
C1        C        0.125        0.018519        0.35800550000000003        0        
C2        C        0.15625        0.074075        0.35800550000000003        0        
C3        C        0.125        0.092592        0.35800550000000003        0        
C4        C        0.15625        0.037037        0.35800550000000003        0        
C1        C        0.125        0.12963        0.35800550000000003        0        
C2        C        0.15625        0.185185        0.35800550000000003        0        
C3        C        0.125        0.203703        0.35800550000000003        0        
C4        C        0.15625        0.148148        0.35800550000000003        0        
C1        C        0.125        0.24074099999999998        0.35800550000000003        0        
C2        C        0.15625        0.296297        0.35800550000000003        0        
C3        C        0.125        0.314815        0.35800550000000003        0        
C4        C        0.15625        0.259259        0.35800550000000003        0        
C1        C        0.125        0.351852        0.35800550000000003        0        
C2        C        0.15625        0.407408        0.35800550000000003        0        
C3        C        0.125        0.42592500000000005        0.35800550000000003        0        
C4        C        0.15625        0.37037        0.35800550000000003        0        
C1        C        0.125        0.46296300000000007        0.35800550000000003        0        
C2        C        0.15625        0.518519        0.35800550000000003        0        
C3        C        0.125        0.537037        0.35800550000000003        0        
C4        C        0.15625        0.481481        0.35800550000000003        0        
C1        C        0.125        0.574075        0.35800550000000003        0        
C2        C        0.15625        0.62963        0.35800550000000003        0        
C3        C        0.125        0.648148        0.35800550000000003        0        
C4        C        0.15625        0.592592        0.35800550000000003        0        
C1        C        0.1875        0.018519        0.35800550000000003        0        
C2        C        0.21875        0.074075        0.35800550000000003        0        
C3        C        0.1875        0.092592        0.35800550000000003        0        
C4        C        0.21875        0.037037        0.35800550000000003        0        
C1        C        0.1875        0.12963        0.35800550000000003        0        
C2        C        0.21875        0.185185        0.35800550000000003        0        
C3        C        0.1875        0.203703        0.35800550000000003        0        
C4        C        0.21875        0.148148        0.35800550000000003        0        
C1        C        0.1875        0.24074099999999998        0.35800550000000003        0        
C2        C        0.21875        0.296297        0.35800550000000003        0        
C3        C        0.1875        0.314815        0.35800550000000003        0        
C4        C        0.21875        0.259259        0.35800550000000003        0        
C1        C        0.1875        0.351852        0.35800550000000003        0        
C2        C        0.21875        0.407408        0.35800550000000003        0        
C3        C        0.1875        0.42592500000000005        0.35800550000000003        0        
C4        C        0.21875        0.37037        0.35800550000000003        0        
C1        C        0.1875        0.46296300000000007        0.35800550000000003        0        
C2        C        0.21875        0.518519        0.35800550000000003        0        
C3        C        0.1875        0.537037        0.35800550000000003        0        
C4        C        0.21875        0.481481        0.35800550000000003        0        
C1        C        0.1875        0.574075        0.35800550000000003        0        
C2        C        0.21875        0.62963        0.35800550000000003        0        
C3        C        0.1875        0.648148        0.35800550000000003        0        
C4        C        0.21875        0.592592        0.35800550000000003        0        
C1        C        0.25        0.018519        0.35800550000000003        0        
C2        C        0.28125        0.074075        0.35800550000000003        0        
C3        C        0.25        0.092592        0.35800550000000003        0        
C4        C        0.28125        0.037037        0.35800550000000003        0        
C1        C        0.25        0.12963        0.35800550000000003        0        
C2        C        0.28125        0.185185        0.35800550000000003        0        
C3        C        0.25        0.203703        0.35800550000000003        0        
C4        C        0.28125        0.148148        0.35800550000000003        0        
C1        C        0.25        0.24074099999999998        0.35800550000000003        0        
C2        C        0.28125        0.296297        0.35800550000000003        0        
C3        C        0.25        0.314815        0.35800550000000003        0        
C4        C        0.28125        0.259259        0.35800550000000003        0        
C1        C        0.25        0.351852        0.35800550000000003        0        
C2        C        0.28125        0.407408        0.35800550000000003        0        
C3        C        0.25        0.42592500000000005        0.35800550000000003        0        
C4        C        0.28125        0.37037        0.35800550000000003        0        
C1        C        0.25        0.46296300000000007        0.35800550000000003        0        
C2        C        0.28125        0.518519        0.35800550000000003        0        
C3        C        0.25        0.537037        0.35800550000000003        0        
C4        C        0.28125        0.481481        0.35800550000000003        0        
C1        C        0.25        0.574075        0.35800550000000003        0        
C2        C        0.28125        0.62963        0.35800550000000003        0        
C3        C        0.25        0.648148        0.35800550000000003        0        
C4        C        0.28125        0.592592        0.35800550000000003        0        
C1        C        0.3125        0.018519        0.35800550000000003        0        
C2        C        0.34375        0.074075        0.35800550000000003        0        
C3        C        0.3125        0.092592        0.35800550000000003        0        
C4        C        0.34375        0.037037        0.35800550000000003        0        
C1        C        0.3125        0.12963        0.35800550000000003        0        
C2        C        0.34375        0.185185        0.35800550000000003        0        
C3        C        0.3125        0.203703        0.35800550000000003        0        
C4        C        0.34375        0.148148        0.35800550000000003        0        
C1        C        0.3125        0.24074099999999998        0.35800550000000003        0        
C2        C        0.34375        0.296297        0.35800550000000003        0        
C3        C        0.3125        0.314815        0.35800550000000003        0        
C4        C        0.34375        0.259259        0.35800550000000003        0        
C1        C        0.3125        0.351852        0.35800550000000003        0        
C2        C        0.34375        0.407408        0.35800550000000003        0        
C3        C        0.3125        0.42592500000000005        0.35800550000000003        0        
C4        C        0.34375        0.37037        0.35800550000000003        0        
C1        C        0.3125        0.46296300000000007        0.35800550000000003        0        
C2        C        0.34375        0.518519        0.35800550000000003        0        
C3        C        0.3125        0.537037        0.35800550000000003        0        
C4        C        0.34375        0.481481        0.35800550000000003        0        
C1        C        0.3125        0.574075        0.35800550000000003        0        
C2        C        0.34375        0.62963        0.35800550000000003        0        
C3        C        0.3125        0.648148        0.35800550000000003        0        
C4        C        0.34375        0.592592        0.35800550000000003        0        
C1        C        0.375        0.018519        0.35800550000000003        0        
C2        C        0.40625        0.074075        0.35800550000000003        0        
C3        C        0.375        0.092592        0.35800550000000003        0        
C4        C        0.40625        0.037037        0.35800550000000003        0        
C1        C        0.375        0.12963        0.35800550000000003        0        
C2        C        0.40625        0.185185        0.35800550000000003        0        
C3        C        0.375        0.203703        0.35800550000000003        0        
C4        C        0.40625        0.148148        0.35800550000000003        0        
C1        C        0.375        0.24074099999999998        0.35800550000000003        0        
C2        C        0.40625        0.296297        0.35800550000000003        0        
C3        C        0.375        0.314815        0.35800550000000003        0        
C4        C        0.40625        0.259259        0.35800550000000003        0        
C1        C        0.375        0.351852        0.35800550000000003        0        
C2        C        0.40625        0.407408        0.35800550000000003        0        
C3        C        0.375        0.42592500000000005        0.35800550000000003        0        
C4        C        0.40625        0.37037        0.35800550000000003        0        
C1        C        0.375        0.46296300000000007        0.35800550000000003        0        
C2        C        0.40625        0.518519        0.35800550000000003        0        
C3        C        0.375        0.537037        0.35800550000000003        0        
C4        C        0.40625        0.481481        0.35800550000000003        0        
C1        C        0.375        0.574075        0.35800550000000003        0        
C2        C        0.40625        0.62963        0.35800550000000003        0        
C3        C        0.375        0.648148        0.35800550000000003        0        
C4        C        0.40625        0.592592        0.35800550000000003        0        
C1        C        0.4375        0.018519        0.35800550000000003        0        
C2        C        0.46875        0.074075        0.35800550000000003        0        
C3        C        0.4375        0.092592        0.35800550000000003        0        
C4        C        0.46875        0.037037        0.35800550000000003        0        
C1        C        0.4375        0.12963        0.35800550000000003        0        
C2        C        0.46875        0.185185        0.35800550000000003        0        
C3        C        0.4375        0.203703        0.35800550000000003        0        
C4        C        0.46875        0.148148        0.35800550000000003        0        
C1        C        0.4375        0.24074099999999998        0.35800550000000003        0        
C2        C        0.46875        0.296297        0.35800550000000003        0        
C3        C        0.4375        0.314815        0.35800550000000003        0        
C4        C        0.46875        0.259259        0.35800550000000003        0        
C1        C        0.4375        0.351852        0.35800550000000003        0        
C2        C        0.46875        0.407408        0.35800550000000003        0        
C3        C        0.4375        0.42592500000000005        0.35800550000000003        0        
C4        C        0.46875        0.37037        0.35800550000000003        0        
C1        C        0.4375        0.46296300000000007        0.35800550000000003        0        
C2        C        0.46875        0.518519        0.35800550000000003        0        
C3        C        0.4375        0.537037        0.35800550000000003        0        
C4        C        0.46875        0.481481        0.35800550000000003        0        
C1        C        0.4375        0.574075        0.35800550000000003        0        
C2        C        0.46875        0.62963        0.35800550000000003        0        
C3        C        0.4375        0.648148        0.35800550000000003        0        
C4        C        0.46875        0.592592        0.35800550000000003        0        
C1        C        0.5        0.018519        0.35800550000000003        0        
C2        C        0.53125        0.074075        0.35800550000000003        0        
C3        C        0.5        0.092592        0.35800550000000003        0        
C4        C        0.53125        0.037037        0.35800550000000003        0        
C1        C        0.5        0.12963        0.35800550000000003        0        
C2        C        0.53125        0.185185        0.35800550000000003        0        
C3        C        0.5        0.203703        0.35800550000000003        0        
C4        C        0.53125        0.148148        0.35800550000000003        0        
C1        C        0.5        0.24074099999999998        0.35800550000000003        0        
C2        C        0.53125        0.296297        0.35800550000000003        0        
C3        C        0.5        0.314815        0.35800550000000003        0        
C4        C        0.53125        0.259259        0.35800550000000003        0        
C1        C        0.5        0.351852        0.35800550000000003        0        
C2        C        0.53125        0.407408        0.35800550000000003        0        
C3        C        0.5        0.42592500000000005        0.35800550000000003        0        
C4        C        0.53125        0.37037        0.35800550000000003        0        
C1        C        0.5        0.46296300000000007        0.35800550000000003        0        
C2        C        0.53125        0.518519        0.35800550000000003        0        
C3        C        0.5        0.537037        0.35800550000000003        0        
C4        C        0.53125        0.481481        0.35800550000000003        0        
C1        C        0.5        0.574075        0.35800550000000003        0        
C2        C        0.53125        0.62963        0.35800550000000003        0        
C3        C        0.5        0.648148        0.35800550000000003        0        
C4        C        0.53125        0.592592        0.35800550000000003        0        
C1        C        0.5625        0.018519        0.35800550000000003        0        
C2        C        0.59375        0.074075        0.35800550000000003        0        
C3        C        0.5625        0.092592        0.35800550000000003        0        
C4        C        0.59375        0.037037        0.35800550000000003        0        
C1        C        0.5625        0.12963        0.35800550000000003        0        
C2        C        0.59375        0.185185        0.35800550000000003        0        
C3        C        0.5625        0.203703        0.35800550000000003        0        
C4        C        0.59375        0.148148        0.35800550000000003        0        
C1        C        0.5625        0.24074099999999998        0.35800550000000003        0        
C2        C        0.59375        0.296297        0.35800550000000003        0        
C3        C        0.5625        0.314815        0.35800550000000003        0        
C4        C        0.59375        0.259259        0.35800550000000003        0        
C1        C        0.5625        0.351852        0.35800550000000003        0        
C2        C        0.59375        0.407408        0.35800550000000003        0        
C3        C        0.5625        0.42592500000000005        0.35800550000000003        0        
C4        C        0.59375        0.37037        0.35800550000000003        0        
C1        C        0.5625        0.46296300000000007        0.35800550000000003        0        
C2        C        0.59375        0.518519        0.35800550000000003        0        
C3        C        0.5625        0.537037        0.35800550000000003        0        
C4        C        0.59375        0.481481        0.35800550000000003        0        
C1        C        0.5625        0.574075        0.35800550000000003        0        
C2        C        0.59375        0.62963        0.35800550000000003        0        
C3        C        0.5625        0.648148        0.35800550000000003        0        
C4        C        0.59375        0.592592        0.35800550000000003        0        
C1        C        0.625        0.018519        0.35800550000000003        0        
C2        C        0.65625        0.074075        0.35800550000000003        0        
C3        C        0.625        0.092592        0.35800550000000003        0        
C4        C        0.65625        0.037037        0.35800550000000003        0        
C1        C        0.625        0.12963        0.35800550000000003        0        
C2        C        0.65625        0.185185        0.35800550000000003        0        
C3        C        0.625        0.203703        0.35800550000000003        0        
C4        C        0.65625        0.148148        0.35800550000000003        0        
C1        C        0.625        0.24074099999999998        0.35800550000000003        0        
C2        C        0.65625        0.296297        0.35800550000000003        0        
C3        C        0.625        0.314815        0.35800550000000003        0        
C4        C        0.65625        0.259259        0.35800550000000003        0        
C1        C        0.625        0.351852        0.35800550000000003        0        
C2        C        0.65625        0.407408        0.35800550000000003        0        
C3        C        0.625        0.42592500000000005        0.35800550000000003        0        
C4        C        0.65625        0.37037        0.35800550000000003        0        
C1        C        0.625        0.46296300000000007        0.35800550000000003        0        
C2        C        0.65625        0.518519        0.35800550000000003        0        
C3        C        0.625        0.537037        0.35800550000000003        0        
C4        C        0.65625        0.481481        0.35800550000000003        0        
C1        C        0.625        0.574075        0.35800550000000003        0        
C2        C        0.65625        0.62963        0.35800550000000003        0        
C3        C        0.625        0.648148        0.35800550000000003        0        
C4        C        0.65625        0.592592        0.35800550000000003        0        
C1        C        0.6875        0.018519        0.35800550000000003        0        
C2        C        0.71875        0.074075        0.35800550000000003        0        
C3        C        0.6875        0.092592        0.35800550000000003        0        
C4        C        0.71875        0.037037        0.35800550000000003        0        
C1        C        0.6875        0.12963        0.35800550000000003        0        
C2        C        0.71875        0.185185        0.35800550000000003        0        
C3        C        0.6875        0.203703        0.35800550000000003        0        
C4        C        0.71875        0.148148        0.35800550000000003        0        
C1        C        0.6875        0.24074099999999998        0.35800550000000003        0        
C2        C        0.71875        0.296297        0.35800550000000003        0        
C3        C        0.6875        0.314815        0.35800550000000003        0        
C4        C        0.71875        0.259259        0.35800550000000003        0        
C1        C        0.6875        0.351852        0.35800550000000003        0        
C2        C        0.71875        0.407408        0.35800550000000003        0        
C3        C        0.6875        0.42592500000000005        0.35800550000000003        0        
C4        C        0.71875        0.37037        0.35800550000000003        0        
C1        C        0.6875        0.46296300000000007        0.35800550000000003        0        
C2        C        0.71875        0.518519        0.35800550000000003        0        
C3        C        0.6875        0.537037        0.35800550000000003        0        
C4        C        0.71875        0.481481        0.35800550000000003        0        
C1        C        0.6875        0.574075        0.35800550000000003        0        
C2        C        0.71875        0.62963        0.35800550000000003        0        
C3        C        0.6875        0.648148        0.35800550000000003        0        
C4        C        0.71875        0.592592        0.35800550000000003        0        
C1        C        0.75        0.018519        0.35800550000000003        0        
C2        C        0.78125        0.074075        0.35800550000000003        0        
C3        C        0.75        0.092592        0.35800550000000003        0        
C4        C        0.78125        0.037037        0.35800550000000003        0        
C1        C        0.75        0.12963        0.35800550000000003        0        
C2        C        0.78125        0.185185        0.35800550000000003        0        
C3        C        0.75        0.203703        0.35800550000000003        0        
C4        C        0.78125        0.148148        0.35800550000000003        0        
C1        C        0.75        0.24074099999999998        0.35800550000000003        0        
C2        C        0.78125        0.296297        0.35800550000000003        0        
C3        C        0.75        0.314815        0.35800550000000003        0        
C4        C        0.78125        0.259259        0.35800550000000003        0        
C1        C        0.75        0.351852        0.35800550000000003        0        
C2        C        0.78125        0.407408        0.35800550000000003        0        
C3        C        0.75        0.42592500000000005        0.35800550000000003        0        
C4        C        0.78125        0.37037        0.35800550000000003        0        
C1        C        0.75        0.46296300000000007        0.35800550000000003        0        
C2        C        0.78125        0.518519        0.35800550000000003        0        
C3        C        0.75        0.537037        0.35800550000000003        0        
C4        C        0.78125        0.481481        0.35800550000000003        0        
C1        C        0.75        0.574075        0.35800550000000003        0        
C2        C        0.78125        0.62963        0.35800550000000003        0        
C3        C        0.75        0.648148        0.35800550000000003        0        
C4        C        0.78125        0.592592        0.35800550000000003        0        
C1        C        0.8125        0.018519        0.35800550000000003        0        
C2        C        0.84375        0.074075        0.35800550000000003        0        
C3        C        0.8125        0.092592        0.35800550000000003        0        
C4        C        0.84375        0.037037        0.35800550000000003        0        
C1        C        0.8125        0.12963        0.35800550000000003        0        
C2        C        0.84375        0.185185        0.35800550000000003        0        
C3        C        0.8125        0.203703        0.35800550000000003        0        
C4        C        0.84375        0.148148        0.35800550000000003        0        
C1        C        0.8125        0.24074099999999998        0.35800550000000003        0        
C2        C        0.84375        0.296297        0.35800550000000003        0        
C3        C        0.8125        0.314815        0.35800550000000003        0        
C4        C        0.84375        0.259259        0.35800550000000003        0        
C1        C        0.8125        0.351852        0.35800550000000003        0        
C2        C        0.84375        0.407408        0.35800550000000003        0        
C3        C        0.8125        0.42592500000000005        0.35800550000000003        0        
C4        C        0.84375        0.37037        0.35800550000000003        0        
C1        C        0.8125        0.46296300000000007        0.35800550000000003        0        
C2        C        0.84375        0.518519        0.35800550000000003        0        
C3        C        0.8125        0.537037        0.35800550000000003        0        
C4        C        0.84375        0.481481        0.35800550000000003        0        
C1        C        0.8125        0.574075        0.35800550000000003        0        
C2        C        0.84375        0.62963        0.35800550000000003        0        
C3        C        0.8125        0.648148        0.35800550000000003        0        
C4        C        0.84375        0.592592        0.35800550000000003        0        
C1        C        0.875        0.018519        0.35800550000000003        0        
C2        C        0.9062500000000001        0.074075        0.35800550000000003        0        
C3        C        0.875        0.092592        0.35800550000000003        0        
C4        C        0.9062500000000001        0.037037        0.35800550000000003        0        
C1        C        0.875        0.12963        0.35800550000000003        0        
C2        C        0.9062500000000001        0.185185        0.35800550000000003        0        
C3        C        0.875        0.203703        0.35800550000000003        0        
C4        C        0.9062500000000001        0.148148        0.35800550000000003        0        
C1        C        0.875        0.24074099999999998        0.35800550000000003        0        
C2        C        0.9062500000000001        0.296297        0.35800550000000003        0        
C3        C        0.875        0.314815        0.35800550000000003        0        
C4        C        0.9062500000000001        0.259259        0.35800550000000003        0        
C1        C        0.875        0.351852        0.35800550000000003        0        
C2        C        0.9062500000000001        0.407408        0.35800550000000003        0        
C3        C        0.875        0.42592500000000005        0.35800550000000003        0        
C4        C        0.9062500000000001        0.37037        0.35800550000000003        0        
C1        C        0.875        0.46296300000000007        0.35800550000000003        0        
C2        C        0.9062500000000001        0.518519        0.35800550000000003        0        
C3        C        0.875        0.537037        0.35800550000000003        0        
C4        C        0.9062500000000001        0.481481        0.35800550000000003        0        
C1        C        0.875        0.574075        0.35800550000000003        0        
C2        C        0.9062500000000001        0.62963        0.35800550000000003        0        
C3        C        0.875        0.648148        0.35800550000000003        0        
C4        C        0.9062500000000001        0.592592        0.35800550000000003        0        
C1        C        0.9375        0.018519        0.35800550000000003        0        
C2        C        0.9687500000000001        0.074075        0.35800550000000003        0        
C3        C        0.9375        0.092592        0.35800550000000003        0        
C4        C        0.9687500000000001        0.037037        0.35800550000000003        0        
C1        C        0.9375        0.12963        0.35800550000000003        0        
C2        C        0.9687500000000001        0.185185        0.35800550000000003        0        
C3        C        0.9375        0.203703        0.35800550000000003        0        
C4        C        0.9687500000000001        0.148148        0.35800550000000003        0        
C1        C        0.9375        0.24074099999999998        0.35800550000000003        0        
C2        C        0.9687500000000001        0.296297        0.35800550000000003        0        
C3        C        0.9375        0.314815        0.35800550000000003        0        
C4        C        0.9687500000000001        0.259259        0.35800550000000003        0        
C1        C        0.9375        0.351852        0.35800550000000003        0        
C2        C        0.9687500000000001        0.407408        0.35800550000000003        0        
C3        C        0.9375        0.42592500000000005        0.35800550000000003        0        
C4        C        0.9687500000000001        0.37037        0.35800550000000003        0        
C1        C        0.9375        0.46296300000000007        0.35800550000000003        0        
C2        C        0.9687500000000001        0.518519        0.35800550000000003        0        
C3        C        0.9375        0.537037        0.35800550000000003        0        
C4        C        0.9687500000000001        0.481481        0.35800550000000003        0        
C1        C        0.9375        0.574075        0.35800550000000003        0        
C2        C        0.9687500000000001        0.62963        0.35800550000000003        0        
C3        C        0.9375        0.648148        0.35800550000000003        0        
C4        C        0.9687500000000001        0.592592        0.35800550000000003        0        
C1        C        0.0        0.685186        0.35800550000000003        0        
C1        C        0.0625        0.685186        0.35800550000000003        0        
C1        C        0.125        0.685186        0.35800550000000003        0        
C1        C        0.1875        0.685186        0.35800550000000003        0        
C1        C        0.25        0.685186        0.35800550000000003        0        
C1        C        0.3125        0.685186        0.35800550000000003        0        
C1        C        0.375        0.685186        0.35800550000000003        0        
C1        C        0.4375        0.685186        0.35800550000000003        0        
C1        C        0.5        0.685186        0.35800550000000003        0        
C1        C        0.5625        0.685186        0.35800550000000003        0        
C1        C        0.625        0.685186        0.35800550000000003        0        
C1        C        0.6875        0.685186        0.35800550000000003        0        
C1        C        0.75        0.685186        0.35800550000000003        0        
C1        C        0.8125        0.685186        0.35800550000000003        0        
C1        C        0.875        0.685186        0.35800550000000003        0        
C1        C        0.9375        0.685186        0.35800550000000003        0        
C2        C        0.03125        0.740741        0.35800550000000003        0        
C2        C        0.09375        0.740741        0.35800550000000003        0        
C2        C        0.15625        0.740741        0.35800550000000003        0        
C2        C        0.21875        0.740741        0.35800550000000003        0        
C2        C        0.28125        0.740741        0.35800550000000003        0        
C2        C        0.34375        0.740741        0.35800550000000003        0        
C2        C        0.40625        0.740741        0.35800550000000003        0        
C2        C        0.46875        0.740741        0.35800550000000003        0        
C2        C        0.53125        0.740741        0.35800550000000003        0        
C2        C        0.59375        0.740741        0.35800550000000003        0        
C2        C        0.65625        0.740741        0.35800550000000003        0        
C2        C        0.71875        0.740741        0.35800550000000003        0        
C2        C        0.78125        0.740741        0.35800550000000003        0        
C2        C        0.84375        0.740741        0.35800550000000003        0        
C2        C        0.9062500000000001        0.740741        0.35800550000000003        0        
C2        C        0.9687500000000001        0.740741        0.35800550000000003        0        
C3        C        0.0        0.759259        0.35800550000000003        0        
C3        C        0.0625        0.759259        0.35800550000000003        0        
C3        C        0.125        0.759259        0.35800550000000003        0        
C3        C        0.1875        0.759259        0.35800550000000003        0        
C3        C        0.25        0.759259        0.35800550000000003        0        
C3        C        0.3125        0.759259        0.35800550000000003        0        
C3        C        0.375        0.759259        0.35800550000000003        0        
C3        C        0.4375        0.759259        0.35800550000000003        0        
C3        C        0.5        0.759259        0.35800550000000003        0        
C3        C        0.5625        0.759259        0.35800550000000003        0        
C3        C        0.625        0.759259        0.35800550000000003        0        
C3        C        0.6875        0.759259        0.35800550000000003        0        
C3        C        0.75        0.759259        0.35800550000000003        0        
C3        C        0.8125        0.759259        0.35800550000000003        0        
C3        C        0.875        0.759259        0.35800550000000003        0        
C3        C        0.9375        0.759259        0.35800550000000003        0        
C4        C        0.03125        0.703703        0.35800550000000003        0        
C4        C        0.09375        0.703703        0.35800550000000003        0        
C4        C        0.15625        0.703703        0.35800550000000003        0        
C4        C        0.21875        0.703703        0.35800550000000003        0        
C4        C        0.28125        0.703703        0.35800550000000003        0        
C4        C        0.34375        0.703703        0.35800550000000003        0        
C4        C        0.40625        0.703703        0.35800550000000003        0        
C4        C        0.46875        0.703703        0.35800550000000003        0        
C4        C        0.53125        0.703703        0.35800550000000003        0        
C4        C        0.59375        0.703703        0.35800550000000003        0        
C4        C        0.65625        0.703703        0.35800550000000003        0        
C4        C        0.71875        0.703703        0.35800550000000003        0        
C4        C        0.78125        0.703703        0.35800550000000003        0        
C4        C        0.84375        0.703703        0.35800550000000003        0        
C4        C        0.9062500000000001        0.703703        0.35800550000000003        0        
C4        C        0.9687500000000001        0.703703        0.35800550000000003        0        
C1        C        0.0        0.796297        0.35800550000000003        0        
C1        C        0.0625        0.796297        0.35800550000000003        0        
C1        C        0.125        0.796297        0.35800550000000003        0        
C1        C        0.1875        0.796297        0.35800550000000003        0        
C1        C        0.25        0.796297        0.35800550000000003        0        
C1        C        0.3125        0.796297        0.35800550000000003        0        
C1        C        0.375        0.796297        0.35800550000000003        0        
C1        C        0.4375        0.796297        0.35800550000000003        0        
C1        C        0.5        0.796297        0.35800550000000003        0        
C1        C        0.5625        0.796297        0.35800550000000003        0        
C1        C        0.625        0.796297        0.35800550000000003        0        
C1        C        0.6875        0.796297        0.35800550000000003        0        
C1        C        0.75        0.796297        0.35800550000000003        0        
C1        C        0.8125        0.796297        0.35800550000000003        0        
C1        C        0.875        0.796297        0.35800550000000003        0        
C1        C        0.9375        0.796297        0.35800550000000003        0        
C2        C        0.03125        0.851852        0.35800550000000003        0        
C2        C        0.09375        0.851852        0.35800550000000003        0        
C2        C        0.15625        0.851852        0.35800550000000003        0        
C2        C        0.21875        0.851852        0.35800550000000003        0        
C2        C        0.28125        0.851852        0.35800550000000003        0        
C2        C        0.34375        0.851852        0.35800550000000003        0        
C2        C        0.40625        0.851852        0.35800550000000003        0        
C2        C        0.46875        0.851852        0.35800550000000003        0        
C2        C        0.53125        0.851852        0.35800550000000003        0        
C2        C        0.59375        0.851852        0.35800550000000003        0        
C2        C        0.65625        0.851852        0.35800550000000003        0        
C2        C        0.71875        0.851852        0.35800550000000003        0        
C2        C        0.78125        0.851852        0.35800550000000003        0        
C2        C        0.84375        0.851852        0.35800550000000003        0        
C2        C        0.9062500000000001        0.851852        0.35800550000000003        0        
C2        C        0.9687500000000001        0.851852        0.35800550000000003        0        
C3        C        0.0        0.87037        0.35800550000000003        0        
C3        C        0.0625        0.87037        0.35800550000000003        0        
C3        C        0.125        0.87037        0.35800550000000003        0        
C3        C        0.1875        0.87037        0.35800550000000003        0        
C3        C        0.25        0.87037        0.35800550000000003        0        
C3        C        0.3125        0.87037        0.35800550000000003        0        
C3        C        0.375        0.87037        0.35800550000000003        0        
C3        C        0.4375        0.87037        0.35800550000000003        0        
C3        C        0.5        0.87037        0.35800550000000003        0        
C3        C        0.5625        0.87037        0.35800550000000003        0        
C3        C        0.625        0.87037        0.35800550000000003        0        
C3        C        0.6875        0.87037        0.35800550000000003        0        
C3        C        0.75        0.87037        0.35800550000000003        0        
C3        C        0.8125        0.87037        0.35800550000000003        0        
C3        C        0.875        0.87037        0.35800550000000003        0        
C3        C        0.9375        0.87037        0.35800550000000003        0        
C4        C        0.03125        0.814814        0.35800550000000003        0        
C4        C        0.09375        0.814814        0.35800550000000003        0        
C4        C        0.15625        0.814814        0.35800550000000003        0        
C4        C        0.21875        0.814814        0.35800550000000003        0        
C4        C        0.28125        0.814814        0.35800550000000003        0        
C4        C        0.34375        0.814814        0.35800550000000003        0        
C4        C        0.40625        0.814814        0.35800550000000003        0        
C4        C        0.46875        0.814814        0.35800550000000003        0        
C4        C        0.53125        0.814814        0.35800550000000003        0        
C4        C        0.59375        0.814814        0.35800550000000003        0        
C4        C        0.65625        0.814814        0.35800550000000003        0        
C4        C        0.71875        0.814814        0.35800550000000003        0        
C4        C        0.78125        0.814814        0.35800550000000003        0        
C4        C        0.84375        0.814814        0.35800550000000003        0        
C4        C        0.9062500000000001        0.814814        0.35800550000000003        0        
C4        C        0.9687500000000001        0.814814        0.35800550000000003        0        
C1        C        0.0        0.907408        0.35800550000000003        0        
C1        C        0.0625        0.907408        0.35800550000000003        0        
C1        C        0.125        0.907408        0.35800550000000003        0        
C1        C        0.1875        0.907408        0.35800550000000003        0        
C1        C        0.25        0.907408        0.35800550000000003        0        
C1        C        0.3125        0.907408        0.35800550000000003        0        
C1        C        0.375        0.907408        0.35800550000000003        0        
C1        C        0.4375        0.907408        0.35800550000000003        0        
C1        C        0.5        0.907408        0.35800550000000003        0        
C1        C        0.5625        0.907408        0.35800550000000003        0        
C1        C        0.625        0.907408        0.35800550000000003        0        
C1        C        0.6875        0.907408        0.35800550000000003        0        
C1        C        0.75        0.907408        0.35800550000000003        0        
C1        C        0.8125        0.907408        0.35800550000000003        0        
C1        C        0.875        0.907408        0.35800550000000003        0        
C1        C        0.9375        0.907408        0.35800550000000003        0        
C2        C        0.03125        0.962963        0.35800550000000003        0        
C2        C        0.09375        0.962963        0.35800550000000003        0        
C2        C        0.15625        0.962963        0.35800550000000003        0        
C2        C        0.21875        0.962963        0.35800550000000003        0        
C2        C        0.28125        0.962963        0.35800550000000003        0        
C2        C        0.34375        0.962963        0.35800550000000003        0        
C2        C        0.40625        0.962963        0.35800550000000003        0        
C2        C        0.46875        0.962963        0.35800550000000003        0        
C2        C        0.53125        0.962963        0.35800550000000003        0        
C2        C        0.59375        0.962963        0.35800550000000003        0        
C2        C        0.65625        0.962963        0.35800550000000003        0        
C2        C        0.71875        0.962963        0.35800550000000003        0        
C2        C        0.78125        0.962963        0.35800550000000003        0        
C2        C        0.84375        0.962963        0.35800550000000003        0        
C2        C        0.9062500000000001        0.962963        0.35800550000000003        0        
C2        C        0.9687500000000001        0.962963        0.35800550000000003        0        
C3        C        0.0        0.9814809999999999        0.35800550000000003        0        
C3        C        0.0625        0.9814809999999999        0.35800550000000003        0        
C3        C        0.125        0.9814809999999999        0.35800550000000003        0        
C3        C        0.1875        0.9814809999999999        0.35800550000000003        0        
C3        C        0.25        0.9814809999999999        0.35800550000000003        0        
C3        C        0.3125        0.9814809999999999        0.35800550000000003        0        
C3        C        0.375        0.9814809999999999        0.35800550000000003        0        
C3        C        0.4375        0.9814809999999999        0.35800550000000003        0        
C3        C        0.5        0.9814809999999999        0.35800550000000003        0        
C3        C        0.5625        0.9814809999999999        0.35800550000000003        0        
C3        C        0.625        0.9814809999999999        0.35800550000000003        0        
C3        C        0.6875        0.9814809999999999        0.35800550000000003        0        
C3        C        0.75        0.9814809999999999        0.35800550000000003        0        
C3        C        0.8125        0.9814809999999999        0.35800550000000003        0        
C3        C        0.875        0.9814809999999999        0.35800550000000003        0        
C3        C        0.9375        0.9814809999999999        0.35800550000000003        0        
C4        C        0.03125        0.925925        0.35800550000000003        0        
C4        C        0.09375        0.925925        0.35800550000000003        0        
C4        C        0.15625        0.925925        0.35800550000000003        0        
C4        C        0.21875        0.925925        0.35800550000000003        0        
C4        C        0.28125        0.925925        0.35800550000000003        0        
C4        C        0.34375        0.925925        0.35800550000000003        0        
C4        C        0.40625        0.925925        0.35800550000000003        0        
C4        C        0.46875        0.925925        0.35800550000000003        0        
C4        C        0.53125        0.925925        0.35800550000000003        0        
C4        C        0.59375        0.925925        0.35800550000000003        0        
C4        C        0.65625        0.925925        0.35800550000000003        0        
C4        C        0.71875        0.925925        0.35800550000000003        0        
C4        C        0.78125        0.925925        0.35800550000000003        0        
C4        C        0.84375        0.925925        0.35800550000000003        0        
C4        C        0.9062500000000001        0.925925        0.35800550000000003        0        
C4        C        0.9687500000000001        0.925925        0.35800550000000003        0        
C_COOH        C        0.0        0.018519        0.03181503968253968        0.55        
O1_COOH        O        -0.02142086818173405        0.038273907608575        0.014550793650793648        -0.5        
O2_COOH        O        0.020856366944950064        -0.0007153092050470175        0.0        -0.58        
H_COOH        H        0.03549791492547073        -0.014218143224087655        0.023165079365079368        0.45        
C_COOH        C        0.0        0.203703        0.03181503968253968        0.55        
O1_COOH        O        0.019772344284679486        0.22519313009290956        0.014550793650793648        -0.5        
O2_COOH        O        -0.019251286374788703        0.182779196393635        0.0        -0.58        
H_COOH        H        -0.0327660386749951        0.16809030665333616        0.023165079365079368        0.45        
C_COOH        C        0.0        0.351852        0.03181503968253968        0.55        
O1_COOH        O        0.028233627329231275        0.3576600425798819        0.014550793650793648        -0.5        
O2_COOH        O        -0.02748959037372451        0.34619701597926805        0.0        -0.58        
H_COOH        H        -0.04678778154403287        0.34222711460156563        0.023165079365079368        0.45        
O_OH        O        0.0        0.537037        0.03526742063492063        -0.64        
H_OH        H        -0.022521635382378266        0.5409730948641593        0.021926190476190478        0.44        
C_COOH        C        0.25        0.018519        0.03181503968253968        0.55        
O1_COOH        O        0.22622867520743892        0.03520153620059453        0.014550793650793648        -0.5        
O2_COOH        O        0.27314488229118583        0.002276096415508288        0.0        -0.58        
H_COOH        H        0.2893930095639922        -0.009126716586537121        0.023165079365079368        0.45        
C_COOH        C        0.25        0.203703        0.03181503968253968        0.55        
O1_COOH        O        0.2787341177708949        0.20562245468811496        0.014550793650793648        -0.5        
O2_COOH        O        0.22202310854140736        0.2018341284412054        0.0        -0.58        
H_COOH        H        0.20238282316869602        0.2005221467010612        0.023165079365079368        0.45        
O_OH        O        0.25        0.351852        0.03526742063492063        -0.64        
H_OH        H        0.23821767388575724        0.3719456896343145        0.021926190476190478        0.44        
C_COOH        C        0.25        0.537037        0.03181503968253968        0.55        
O1_COOH        O        0.24149203865938335        0.5652781286556451        0.014550793650793648        -0.5        
O2_COOH        O        0.2582837521881891        0.5095401059813002        0.0        -0.58        
H_COOH        H        0.26409909651168745        0.4902367875197134        0.023165079365079368        0.45        
O_OH        O        0.5        0.018519        0.03526742063492063        -0.64        
H_OH        H        0.515816145422336        0.035443148588508826        0.021926190476190478        0.44        
O_OH        O        0.5        0.203703        0.03526742063492063        -0.64        
H_OH        H        0.4771673240552072        0.20449370780341436        0.021926190476190478        0.44        
C_COOH        C        0.5        0.351852        0.03181503968253968        0.55        
O1_COOH        O        0.5135683672871788        0.3779254143672745        0.014550793650793648        -0.5        
O2_COOH        O        0.4867891980575014        0.32646569478874277        0.0        -0.58        
H_COOH        H        0.4775149754178253        0.30864404796118905        0.023165079365079368        0.45        
O_OH        O        0.5        0.537037        0.03526742063492063        -0.64        
H_OH        H        0.48413399307146693        0.5539118900313758        0.021926190476190478        0.44        
C_COOH        C        0.75        0.018519        0.03181503968253968        0.55        
O1_COOH        O        0.7405694836317277        0.04644962562726262        0.014550793650793648        -0.5        
O2_COOH        O        0.7591819952482021        -0.008675573634552776        0.0        -0.58        
H_COOH        H        0.765627922496141        -0.02776665770164221        0.023165079365079368        0.45        
C_COOH        C        0.75        0.203703        0.03181503968253968        0.55        
O1_COOH        O        0.7286497797553358        0.22353834675574286        0.014550793650793648        -0.5        
O2_COOH        O        0.7707875807833935        0.1843903714497314        0.0        -0.58        
H_COOH        H        0.7853808396305532        0.17083255582944198        0.023165079365079368        0.45        
O_OH        O        0.75        0.351852        0.03526742063492063        -0.64        
H_OH        H        0.7435389431230318        0.3743479632463878        0.021926190476190478        0.44        
O_OH        O        0.75        0.537037        0.03526742063492063        -0.64        
H_OH        H        0.7644594498959256        0.555195087830613        0.021926190476190478        0.44        
C_COOH        C        0.0        0.685186        0.03181503968253968        0.55        
O1_COOH        O        -0.011133794482848368        0.7124477792628209        0.014550793650793648        -0.5        
O2_COOH        O        0.010840387105409483        0.6586426467122718        0.0        -0.58        
H_COOH        H        0.018450535524365128        0.6400087311433724        0.023165079365079368        0.45        
O_OH        O        0.25        0.685186        0.03526742063492063        -0.64        
H_OH        H        0.22887587167841222        0.6941177815184347        0.021926190476190478        0.44        
C_COOH        C        0.5        0.685186        0.03181503968253968        0.55        
O1_COOH        O        0.48990822332094447        0.7128719984957077        0.014550793650793648        -0.5        
O2_COOH        O        0.5098258294556124        0.6582296068713499        0.0        -0.58        
H_COOH        H        0.5167237399978699        0.6393057298405772        0.023165079365079368        0.45        
O_OH        O        0.75        0.685186        0.03526742063492063        -0.64        
H_OH        H        0.7296919207423508        0.6959289218963614        0.021926190476190478        0.44        
O_OH        O        0.0        0.87037        0.03526742063492063        -0.64        
H_OH        H        0.017667474189104714        0.8852392775040214        0.021926190476190478        0.44        
O_OH        O        0.25        0.87037        0.03526742063492063        -0.64        
H_OH        H        0.22908905641462482        0.8798156926704805        0.021926190476190478        0.44        
O_OH        O        0.5        0.87037        0.03526742063492063        -0.64        
H_OH        H        0.479392294664731        0.8804937323215718        0.021926190476190478        0.44        
C_COOH        C        0.75        0.87037        0.03181503968253968        0.55        
O1_COOH        O        0.7574729761630756        0.8989180849131415        0.014550793650793648        -0.5        
O2_COOH        O        0.742723958165203        0.8425742389004668        0.0        -0.58        
H_COOH        H        0.7376160447920997        0.8230611103259599        0.023165079365079368        0.45        
C_COOH        C        0.0        0.018519        0.4183229761904762        0.55        
O1_COOH        O        0.028683093386326533        0.021121295222093602        0.4355872222222222        -0.5        
O2_COOH        O        -0.0279272117127173        0.015985282711297615        0.45013801587301594        -0.58        
H_COOH        H        -0.047532621002512876        0.014206567206841401        0.4269729365079365        0.45        
C_COOH        C        0.0        0.203703        0.4183229761904762        0.55        
O1_COOH        O        0.008741189758021278        0.2318689626540522        0.4355872222222222        -0.5        
O2_COOH        O        -0.008510834368711044        0.17627929114343774        0.45013801587301594        -0.58        
H_COOH        H        -0.01448559450275823        0.15702734999342804        0.4269729365079365        0.45        
C_COOH        C        0.0        0.351852        0.4183229761904762        0.55        
O1_COOH        O        -0.00034121048558451725        0.3814108696930781        0.4355872222222222        -0.5        
O2_COOH        O        0.00033221861189004347        0.3230720911948802        0.45013801587301594        -0.58        
H_COOH        H        0.0005654421046895798        0.30286807307622116        0.4269729365079365        0.45        
O_OH        O        0.0        0.537037        0.4148705952380953        -0.64        
H_OH        H        0.016687818898773688        0.5530546893060421        0.42821182539682545        0.44        
C_COOH        C        0.25        0.018519        0.4183229761904762        0.55        
O1_COOH        O        0.2212173692141274        0.019381295339957447        0.4355872222222222        -0.5        
O2_COOH        O        0.27802412601665993        0.0176794286123002        0.45013801587301594        -0.58        
H_COOH        H        0.29769757090608406        0.017090034266270274        0.4269729365079365        0.45        
C_COOH        C        0.25        0.203703        0.4183229761904762        0.55        
O1_COOH        O        0.27846469863006384        0.20816681351457206        0.4355872222222222        -0.5        
O2_COOH        O        0.22228542771612483        0.1993568207581554        0.45013801587301594        -0.58        
H_COOH        H        0.20282929516317227        0.19630572408013022        0.4269729365079365        0.45        
O_OH        O        0.25        0.351852        0.4148705952380953        -0.64        
H_OH        H        0.27276138103038605        0.35386473535407587        0.42821182539682545        0.44        
C_COOH        C        0.25        0.537037        0.4183229761904762        0.55        
O1_COOH        O        0.2421305676453344        0.5654725870486781        0.4355872222222222        -0.5        
O2_COOH        O        0.2576620502700877        0.5093507721239507        0.45013801587301594        -0.58        
H_COOH        H        0.2630409485678957        0.4899145378595285        0.4269729365079365        0.45        
O_OH        O        0.5        0.018519        0.4148705952380953        -0.64        
H_OH        H        0.4816688546666954        0.032516001470589286        0.42821182539682545        0.44        
O_OH        O        0.5        0.203703        0.4148705952380953        -0.64        
H_OH        H        0.4920246634824107        0.22568092037893067        0.42821182539682545        0.44        
C_COOH        C        0.5        0.351852        0.4183229761904762        0.55        
O1_COOH        O        0.4862884759449792        0.3778463662707611        0.4355872222222222        -0.5        
O2_COOH        O        0.5133501861194345        0.3265426597414793        0.45013801587301594        -0.58        
H_COOH        H        0.5227222589800873        0.30877504370707787        0.4269729365079365        0.45        
O_OH        O        0.5        0.537037        0.4148705952380953        -0.64        
H_OH        H        0.5057173277365821        0.5597441381058119        0.42821182539682545        0.44        
C_COOH        C        0.75        0.018519        0.4183229761904762        0.55        
O1_COOH        O        0.73345596740679        0.0427137806096189        0.4355872222222222        -0.5        
O2_COOH        O        0.766108049943906        -0.005038178834472657        0.45013801587301594        -0.58        
H_COOH        H        0.7774161932436877        -0.021575745760727336        0.4269729365079365        0.45        
C_COOH        C        0.75        0.203703        0.4183229761904762        0.55        
O1_COOH        O        0.7220632614172953        0.21086601813256592        0.4355872222222222        -0.5        
O2_COOH        O        0.7772005254961084        0.19672874791373224        0.45013801587301594        -0.58        
H_COOH        H        0.796295787877991        0.19183269641929585        0.4269729365079365        0.45        
O_OH        O        0.75        0.351852        0.4148705952380953        -0.64        
H_OH        H        0.7709624713369548        0.36117654480457995        0.42821182539682545        0.44        
O_OH        O        0.75        0.537037        0.4148705952380953        -0.64        
H_OH        H        0.7727065409569158        0.5396213771374885        0.42821182539682545        0.44        
C_COOH        C        0.0        0.685186        0.4183229761904762        0.55        
O1_COOH        O        -0.026300977102417616        0.6972197946194619        0.4355872222222222        -0.5        
O2_COOH        O        0.025607871016474642        0.6734693303396321        0.45013801587301594        -0.58        
H_COOH        H        0.04358506105903293        0.6652440156692012        0.4269729365079365        0.45        
O_OH        O        0.25        0.685186        0.4148705952380953        -0.64        
H_OH        H        0.23580093536704233        0.7035593704800694        0.42821182539682545        0.44        
C_COOH        C        0.5        0.685186        0.4183229761904762        0.55        
O1_COOH        O        0.527642699242688        0.6934644354218723        0.4355872222222222        -0.5        
O2_COOH        O        0.47308576506502154        0.677125725065118        0.45013801587301594        -0.58        
H_COOH        H        0.4541914838510584        0.6714672658278615        0.4269729365079365        0.45        
O_OH        O        0.75        0.685186        0.4148705952380953        -0.64        
H_OH        H        0.7493301452003801        0.7086293669546799        0.42821182539682545        0.44        
O_OH        O        0.0        0.87037        0.4148705952380953        -0.64        
H_OH        H        -0.017136594793464095        0.8858802665410106        0.42821182539682545        0.44        
O_OH        O        0.25        0.87037        0.4148705952380953        -0.64        
H_OH        H        0.2508216655980687        0.8938082767529533        0.42821182539682545        0.44        
O_OH        O        0.5        0.87037        0.4148705952380953        -0.64        
H_OH        H        0.4829686699850101        0.8860019853328797        0.42821182539682545        0.44        
C_COOH        C        0.75        0.87037        0.4183229761904762        0.55        
O1_COOH        O        0.7737305645259138        0.887113583702284        0.4355872222222222        -0.5        
O2_COOH        O        0.7268948038256772        0.8540676576903593        0.45013801587301594        -0.58        
H_COOH        H        0.7106745369269113        0.8426231176248963        0.4269729365079365        0.45        
