data_graphite_ortho

_audit_creation_method RASPA-1.0
_audit_creation_date 2012-2-3
_audit_author_name 'David Dubbeldam'

_cell_length_a    39.36    
_cell_length_b    38.34    
_cell_length_c    46.3    
_cell_angle_alpha 90
_cell_angle_beta  90
_cell_angle_gamma 90
_cell_volume      69869.59      

_symmetry_cell_setting          triclinic
_symmetry_space_group_name_Hall 'P 1'
_symmetry_space_group_name_H-M  'P 1'
_symmetry_Int_Tables_number     1

_symmetry_equiv_pos_as_xyz 'x,y,z'

loop_
_atom_site_label
_atom_site_type_symbol
_atom_site_fract_x
_atom_site_fract_y
_atom_site_fract_z
_atom_site_charge
C1        C        0.0        0.018519        0.259179        0        
C2        C        0.03125        0.074075        0.259179        0        
C3        C        0.0        0.092592        0.259179        0        
C4        C        0.03125        0.037037        0.259179        0        
C1        C        0.0        0.12963        0.259179        0        
C2        C        0.03125        0.185185        0.259179        0        
C3        C        0.0        0.203703        0.259179        0        
C4        C        0.03125        0.148148        0.259179        0        
C1        C        0.0        0.24074099999999998        0.259179        0        
C2        C        0.03125        0.296297        0.259179        0        
C3        C        0.0        0.314815        0.259179        0        
C4        C        0.03125        0.259259        0.259179        0        
C1        C        0.0        0.351852        0.259179        0        
C2        C        0.03125        0.407408        0.259179        0        
C3        C        0.0        0.42592500000000005        0.259179        0        
C4        C        0.03125        0.37037        0.259179        0        
C1        C        0.0        0.46296300000000007        0.259179        0        
C2        C        0.03125        0.518519        0.259179        0        
C3        C        0.0        0.537037        0.259179        0        
C4        C        0.03125        0.481481        0.259179        0        
C1        C        0.0        0.574075        0.259179        0        
C2        C        0.03125        0.62963        0.259179        0        
C3        C        0.0        0.648148        0.259179        0        
C4        C        0.03125        0.592592        0.259179        0        
C1        C        0.0625        0.018519        0.259179        0        
C2        C        0.09375        0.074075        0.259179        0        
C3        C        0.0625        0.092592        0.259179        0        
C4        C        0.09375        0.037037        0.259179        0        
C1        C        0.0625        0.12963        0.259179        0        
C2        C        0.09375        0.185185        0.259179        0        
C3        C        0.0625        0.203703        0.259179        0        
C4        C        0.09375        0.148148        0.259179        0        
C1        C        0.0625        0.24074099999999998        0.259179        0        
C2        C        0.09375        0.296297        0.259179        0        
C3        C        0.0625        0.314815        0.259179        0        
C4        C        0.09375        0.259259        0.259179        0        
C1        C        0.0625        0.351852        0.259179        0        
C2        C        0.09375        0.407408        0.259179        0        
C3        C        0.0625        0.42592500000000005        0.259179        0        
C4        C        0.09375        0.37037        0.259179        0        
C1        C        0.0625        0.46296300000000007        0.259179        0        
C2        C        0.09375        0.518519        0.259179        0        
C3        C        0.0625        0.537037        0.259179        0        
C4        C        0.09375        0.481481        0.259179        0        
C1        C        0.0625        0.574075        0.259179        0        
C2        C        0.09375        0.62963        0.259179        0        
C3        C        0.0625        0.648148        0.259179        0        
C4        C        0.09375        0.592592        0.259179        0        
C1        C        0.125        0.018519        0.259179        0        
C2        C        0.15625        0.074075        0.259179        0        
C3        C        0.125        0.092592        0.259179        0        
C4        C        0.15625        0.037037        0.259179        0        
C1        C        0.125        0.12963        0.259179        0        
C2        C        0.15625        0.185185        0.259179        0        
C3        C        0.125        0.203703        0.259179        0        
C4        C        0.15625        0.148148        0.259179        0        
C1        C        0.125        0.24074099999999998        0.259179        0        
C2        C        0.15625        0.296297        0.259179        0        
C3        C        0.125        0.314815        0.259179        0        
C4        C        0.15625        0.259259        0.259179        0        
C1        C        0.125        0.351852        0.259179        0        
C2        C        0.15625        0.407408        0.259179        0        
C3        C        0.125        0.42592500000000005        0.259179        0        
C4        C        0.15625        0.37037        0.259179        0        
C1        C        0.125        0.46296300000000007        0.259179        0        
C2        C        0.15625        0.518519        0.259179        0        
C3        C        0.125        0.537037        0.259179        0        
C4        C        0.15625        0.481481        0.259179        0        
C1        C        0.125        0.574075        0.259179        0        
C2        C        0.15625        0.62963        0.259179        0        
C3        C        0.125        0.648148        0.259179        0        
C4        C        0.15625        0.592592        0.259179        0        
C1        C        0.1875        0.018519        0.259179        0        
C2        C        0.21875        0.074075        0.259179        0        
C3        C        0.1875        0.092592        0.259179        0        
C4        C        0.21875        0.037037        0.259179        0        
C1        C        0.1875        0.12963        0.259179        0        
C2        C        0.21875        0.185185        0.259179        0        
C3        C        0.1875        0.203703        0.259179        0        
C4        C        0.21875        0.148148        0.259179        0        
C1        C        0.1875        0.24074099999999998        0.259179        0        
C2        C        0.21875        0.296297        0.259179        0        
C3        C        0.1875        0.314815        0.259179        0        
C4        C        0.21875        0.259259        0.259179        0        
C1        C        0.1875        0.351852        0.259179        0        
C2        C        0.21875        0.407408        0.259179        0        
C3        C        0.1875        0.42592500000000005        0.259179        0        
C4        C        0.21875        0.37037        0.259179        0        
C1        C        0.1875        0.46296300000000007        0.259179        0        
C2        C        0.21875        0.518519        0.259179        0        
C3        C        0.1875        0.537037        0.259179        0        
C4        C        0.21875        0.481481        0.259179        0        
C1        C        0.1875        0.574075        0.259179        0        
C2        C        0.21875        0.62963        0.259179        0        
C3        C        0.1875        0.648148        0.259179        0        
C4        C        0.21875        0.592592        0.259179        0        
C1        C        0.25        0.018519        0.259179        0        
C2        C        0.28125        0.074075        0.259179        0        
C3        C        0.25        0.092592        0.259179        0        
C4        C        0.28125        0.037037        0.259179        0        
C1        C        0.25        0.12963        0.259179        0        
C2        C        0.28125        0.185185        0.259179        0        
C3        C        0.25        0.203703        0.259179        0        
C4        C        0.28125        0.148148        0.259179        0        
C1        C        0.25        0.24074099999999998        0.259179        0        
C2        C        0.28125        0.296297        0.259179        0        
C3        C        0.25        0.314815        0.259179        0        
C4        C        0.28125        0.259259        0.259179        0        
C1        C        0.25        0.351852        0.259179        0        
C2        C        0.28125        0.407408        0.259179        0        
C3        C        0.25        0.42592500000000005        0.259179        0        
C4        C        0.28125        0.37037        0.259179        0        
C1        C        0.25        0.46296300000000007        0.259179        0        
C2        C        0.28125        0.518519        0.259179        0        
C3        C        0.25        0.537037        0.259179        0        
C4        C        0.28125        0.481481        0.259179        0        
C1        C        0.25        0.574075        0.259179        0        
C2        C        0.28125        0.62963        0.259179        0        
C3        C        0.25        0.648148        0.259179        0        
C4        C        0.28125        0.592592        0.259179        0        
C1        C        0.3125        0.018519        0.259179        0        
C2        C        0.34375        0.074075        0.259179        0        
C3        C        0.3125        0.092592        0.259179        0        
C4        C        0.34375        0.037037        0.259179        0        
C1        C        0.3125        0.12963        0.259179        0        
C2        C        0.34375        0.185185        0.259179        0        
C3        C        0.3125        0.203703        0.259179        0        
C4        C        0.34375        0.148148        0.259179        0        
C1        C        0.3125        0.24074099999999998        0.259179        0        
C2        C        0.34375        0.296297        0.259179        0        
C3        C        0.3125        0.314815        0.259179        0        
C4        C        0.34375        0.259259        0.259179        0        
C1        C        0.3125        0.351852        0.259179        0        
C2        C        0.34375        0.407408        0.259179        0        
C3        C        0.3125        0.42592500000000005        0.259179        0        
C4        C        0.34375        0.37037        0.259179        0        
C1        C        0.3125        0.46296300000000007        0.259179        0        
C2        C        0.34375        0.518519        0.259179        0        
C3        C        0.3125        0.537037        0.259179        0        
C4        C        0.34375        0.481481        0.259179        0        
C1        C        0.3125        0.574075        0.259179        0        
C2        C        0.34375        0.62963        0.259179        0        
C3        C        0.3125        0.648148        0.259179        0        
C4        C        0.34375        0.592592        0.259179        0        
C1        C        0.375        0.018519        0.259179        0        
C2        C        0.40625        0.074075        0.259179        0        
C3        C        0.375        0.092592        0.259179        0        
C4        C        0.40625        0.037037        0.259179        0        
C1        C        0.375        0.12963        0.259179        0        
C2        C        0.40625        0.185185        0.259179        0        
C3        C        0.375        0.203703        0.259179        0        
C4        C        0.40625        0.148148        0.259179        0        
C1        C        0.375        0.24074099999999998        0.259179        0        
C2        C        0.40625        0.296297        0.259179        0        
C3        C        0.375        0.314815        0.259179        0        
C4        C        0.40625        0.259259        0.259179        0        
C1        C        0.375        0.351852        0.259179        0        
C2        C        0.40625        0.407408        0.259179        0        
C3        C        0.375        0.42592500000000005        0.259179        0        
C4        C        0.40625        0.37037        0.259179        0        
C1        C        0.375        0.46296300000000007        0.259179        0        
C2        C        0.40625        0.518519        0.259179        0        
C3        C        0.375        0.537037        0.259179        0        
C4        C        0.40625        0.481481        0.259179        0        
C1        C        0.375        0.574075        0.259179        0        
C2        C        0.40625        0.62963        0.259179        0        
C3        C        0.375        0.648148        0.259179        0        
C4        C        0.40625        0.592592        0.259179        0        
C1        C        0.4375        0.018519        0.259179        0        
C2        C        0.46875        0.074075        0.259179        0        
C3        C        0.4375        0.092592        0.259179        0        
C4        C        0.46875        0.037037        0.259179        0        
C1        C        0.4375        0.12963        0.259179        0        
C2        C        0.46875        0.185185        0.259179        0        
C3        C        0.4375        0.203703        0.259179        0        
C4        C        0.46875        0.148148        0.259179        0        
C1        C        0.4375        0.24074099999999998        0.259179        0        
C2        C        0.46875        0.296297        0.259179        0        
C3        C        0.4375        0.314815        0.259179        0        
C4        C        0.46875        0.259259        0.259179        0        
C1        C        0.4375        0.351852        0.259179        0        
C2        C        0.46875        0.407408        0.259179        0        
C3        C        0.4375        0.42592500000000005        0.259179        0        
C4        C        0.46875        0.37037        0.259179        0        
C1        C        0.4375        0.46296300000000007        0.259179        0        
C2        C        0.46875        0.518519        0.259179        0        
C3        C        0.4375        0.537037        0.259179        0        
C4        C        0.46875        0.481481        0.259179        0        
C1        C        0.4375        0.574075        0.259179        0        
C2        C        0.46875        0.62963        0.259179        0        
C3        C        0.4375        0.648148        0.259179        0        
C4        C        0.46875        0.592592        0.259179        0        
C1        C        0.5        0.018519        0.259179        0        
C2        C        0.53125        0.074075        0.259179        0        
C3        C        0.5        0.092592        0.259179        0        
C4        C        0.53125        0.037037        0.259179        0        
C1        C        0.5        0.12963        0.259179        0        
C2        C        0.53125        0.185185        0.259179        0        
C3        C        0.5        0.203703        0.259179        0        
C4        C        0.53125        0.148148        0.259179        0        
C1        C        0.5        0.24074099999999998        0.259179        0        
C2        C        0.53125        0.296297        0.259179        0        
C3        C        0.5        0.314815        0.259179        0        
C4        C        0.53125        0.259259        0.259179        0        
C1        C        0.5        0.351852        0.259179        0        
C2        C        0.53125        0.407408        0.259179        0        
C3        C        0.5        0.42592500000000005        0.259179        0        
C4        C        0.53125        0.37037        0.259179        0        
C1        C        0.5        0.46296300000000007        0.259179        0        
C2        C        0.53125        0.518519        0.259179        0        
C3        C        0.5        0.537037        0.259179        0        
C4        C        0.53125        0.481481        0.259179        0        
C1        C        0.5        0.574075        0.259179        0        
C2        C        0.53125        0.62963        0.259179        0        
C3        C        0.5        0.648148        0.259179        0        
C4        C        0.53125        0.592592        0.259179        0        
C1        C        0.5625        0.018519        0.259179        0        
C2        C        0.59375        0.074075        0.259179        0        
C3        C        0.5625        0.092592        0.259179        0        
C4        C        0.59375        0.037037        0.259179        0        
C1        C        0.5625        0.12963        0.259179        0        
C2        C        0.59375        0.185185        0.259179        0        
C3        C        0.5625        0.203703        0.259179        0        
C4        C        0.59375        0.148148        0.259179        0        
C1        C        0.5625        0.24074099999999998        0.259179        0        
C2        C        0.59375        0.296297        0.259179        0        
C3        C        0.5625        0.314815        0.259179        0        
C4        C        0.59375        0.259259        0.259179        0        
C1        C        0.5625        0.351852        0.259179        0        
C2        C        0.59375        0.407408        0.259179        0        
C3        C        0.5625        0.42592500000000005        0.259179        0        
C4        C        0.59375        0.37037        0.259179        0        
C1        C        0.5625        0.46296300000000007        0.259179        0        
C2        C        0.59375        0.518519        0.259179        0        
C3        C        0.5625        0.537037        0.259179        0        
C4        C        0.59375        0.481481        0.259179        0        
C1        C        0.5625        0.574075        0.259179        0        
C2        C        0.59375        0.62963        0.259179        0        
C3        C        0.5625        0.648148        0.259179        0        
C4        C        0.59375        0.592592        0.259179        0        
C1        C        0.625        0.018519        0.259179        0        
C2        C        0.65625        0.074075        0.259179        0        
C3        C        0.625        0.092592        0.259179        0        
C4        C        0.65625        0.037037        0.259179        0        
C1        C        0.625        0.12963        0.259179        0        
C2        C        0.65625        0.185185        0.259179        0        
C3        C        0.625        0.203703        0.259179        0        
C4        C        0.65625        0.148148        0.259179        0        
C1        C        0.625        0.24074099999999998        0.259179        0        
C2        C        0.65625        0.296297        0.259179        0        
C3        C        0.625        0.314815        0.259179        0        
C4        C        0.65625        0.259259        0.259179        0        
C1        C        0.625        0.351852        0.259179        0        
C2        C        0.65625        0.407408        0.259179        0        
C3        C        0.625        0.42592500000000005        0.259179        0        
C4        C        0.65625        0.37037        0.259179        0        
C1        C        0.625        0.46296300000000007        0.259179        0        
C2        C        0.65625        0.518519        0.259179        0        
C3        C        0.625        0.537037        0.259179        0        
C4        C        0.65625        0.481481        0.259179        0        
C1        C        0.625        0.574075        0.259179        0        
C2        C        0.65625        0.62963        0.259179        0        
C3        C        0.625        0.648148        0.259179        0        
C4        C        0.65625        0.592592        0.259179        0        
C1        C        0.6875        0.018519        0.259179        0        
C2        C        0.71875        0.074075        0.259179        0        
C3        C        0.6875        0.092592        0.259179        0        
C4        C        0.71875        0.037037        0.259179        0        
C1        C        0.6875        0.12963        0.259179        0        
C2        C        0.71875        0.185185        0.259179        0        
C3        C        0.6875        0.203703        0.259179        0        
C4        C        0.71875        0.148148        0.259179        0        
C1        C        0.6875        0.24074099999999998        0.259179        0        
C2        C        0.71875        0.296297        0.259179        0        
C3        C        0.6875        0.314815        0.259179        0        
C4        C        0.71875        0.259259        0.259179        0        
C1        C        0.6875        0.351852        0.259179        0        
C2        C        0.71875        0.407408        0.259179        0        
C3        C        0.6875        0.42592500000000005        0.259179        0        
C4        C        0.71875        0.37037        0.259179        0        
C1        C        0.6875        0.46296300000000007        0.259179        0        
C2        C        0.71875        0.518519        0.259179        0        
C3        C        0.6875        0.537037        0.259179        0        
C4        C        0.71875        0.481481        0.259179        0        
C1        C        0.6875        0.574075        0.259179        0        
C2        C        0.71875        0.62963        0.259179        0        
C3        C        0.6875        0.648148        0.259179        0        
C4        C        0.71875        0.592592        0.259179        0        
C1        C        0.75        0.018519        0.259179        0        
C2        C        0.78125        0.074075        0.259179        0        
C3        C        0.75        0.092592        0.259179        0        
C4        C        0.78125        0.037037        0.259179        0        
C1        C        0.75        0.12963        0.259179        0        
C2        C        0.78125        0.185185        0.259179        0        
C3        C        0.75        0.203703        0.259179        0        
C4        C        0.78125        0.148148        0.259179        0        
C1        C        0.75        0.24074099999999998        0.259179        0        
C2        C        0.78125        0.296297        0.259179        0        
C3        C        0.75        0.314815        0.259179        0        
C4        C        0.78125        0.259259        0.259179        0        
C1        C        0.75        0.351852        0.259179        0        
C2        C        0.78125        0.407408        0.259179        0        
C3        C        0.75        0.42592500000000005        0.259179        0        
C4        C        0.78125        0.37037        0.259179        0        
C1        C        0.75        0.46296300000000007        0.259179        0        
C2        C        0.78125        0.518519        0.259179        0        
C3        C        0.75        0.537037        0.259179        0        
C4        C        0.78125        0.481481        0.259179        0        
C1        C        0.75        0.574075        0.259179        0        
C2        C        0.78125        0.62963        0.259179        0        
C3        C        0.75        0.648148        0.259179        0        
C4        C        0.78125        0.592592        0.259179        0        
C1        C        0.8125        0.018519        0.259179        0        
C2        C        0.84375        0.074075        0.259179        0        
C3        C        0.8125        0.092592        0.259179        0        
C4        C        0.84375        0.037037        0.259179        0        
C1        C        0.8125        0.12963        0.259179        0        
C2        C        0.84375        0.185185        0.259179        0        
C3        C        0.8125        0.203703        0.259179        0        
C4        C        0.84375        0.148148        0.259179        0        
C1        C        0.8125        0.24074099999999998        0.259179        0        
C2        C        0.84375        0.296297        0.259179        0        
C3        C        0.8125        0.314815        0.259179        0        
C4        C        0.84375        0.259259        0.259179        0        
C1        C        0.8125        0.351852        0.259179        0        
C2        C        0.84375        0.407408        0.259179        0        
C3        C        0.8125        0.42592500000000005        0.259179        0        
C4        C        0.84375        0.37037        0.259179        0        
C1        C        0.8125        0.46296300000000007        0.259179        0        
C2        C        0.84375        0.518519        0.259179        0        
C3        C        0.8125        0.537037        0.259179        0        
C4        C        0.84375        0.481481        0.259179        0        
C1        C        0.8125        0.574075        0.259179        0        
C2        C        0.84375        0.62963        0.259179        0        
C3        C        0.8125        0.648148        0.259179        0        
C4        C        0.84375        0.592592        0.259179        0        
C1        C        0.875        0.018519        0.259179        0        
C2        C        0.9062500000000001        0.074075        0.259179        0        
C3        C        0.875        0.092592        0.259179        0        
C4        C        0.9062500000000001        0.037037        0.259179        0        
C1        C        0.875        0.12963        0.259179        0        
C2        C        0.9062500000000001        0.185185        0.259179        0        
C3        C        0.875        0.203703        0.259179        0        
C4        C        0.9062500000000001        0.148148        0.259179        0        
C1        C        0.875        0.24074099999999998        0.259179        0        
C2        C        0.9062500000000001        0.296297        0.259179        0        
C3        C        0.875        0.314815        0.259179        0        
C4        C        0.9062500000000001        0.259259        0.259179        0        
C1        C        0.875        0.351852        0.259179        0        
C2        C        0.9062500000000001        0.407408        0.259179        0        
C3        C        0.875        0.42592500000000005        0.259179        0        
C4        C        0.9062500000000001        0.37037        0.259179        0        
C1        C        0.875        0.46296300000000007        0.259179        0        
C2        C        0.9062500000000001        0.518519        0.259179        0        
C3        C        0.875        0.537037        0.259179        0        
C4        C        0.9062500000000001        0.481481        0.259179        0        
C1        C        0.875        0.574075        0.259179        0        
C2        C        0.9062500000000001        0.62963        0.259179        0        
C3        C        0.875        0.648148        0.259179        0        
C4        C        0.9062500000000001        0.592592        0.259179        0        
C1        C        0.9375        0.018519        0.259179        0        
C2        C        0.9687500000000001        0.074075        0.259179        0        
C3        C        0.9375        0.092592        0.259179        0        
C4        C        0.9687500000000001        0.037037        0.259179        0        
C1        C        0.9375        0.12963        0.259179        0        
C2        C        0.9687500000000001        0.185185        0.259179        0        
C3        C        0.9375        0.203703        0.259179        0        
C4        C        0.9687500000000001        0.148148        0.259179        0        
C1        C        0.9375        0.24074099999999998        0.259179        0        
C2        C        0.9687500000000001        0.296297        0.259179        0        
C3        C        0.9375        0.314815        0.259179        0        
C4        C        0.9687500000000001        0.259259        0.259179        0        
C1        C        0.9375        0.351852        0.259179        0        
C2        C        0.9687500000000001        0.407408        0.259179        0        
C3        C        0.9375        0.42592500000000005        0.259179        0        
C4        C        0.9687500000000001        0.37037        0.259179        0        
C1        C        0.9375        0.46296300000000007        0.259179        0        
C2        C        0.9687500000000001        0.518519        0.259179        0        
C3        C        0.9375        0.537037        0.259179        0        
C4        C        0.9687500000000001        0.481481        0.259179        0        
C1        C        0.9375        0.574075        0.259179        0        
C2        C        0.9687500000000001        0.62963        0.259179        0        
C3        C        0.9375        0.648148        0.259179        0        
C4        C        0.9687500000000001        0.592592        0.259179        0        
C1        C        0.0        0.685186        0.259179        0        
C1        C        0.0625        0.685186        0.259179        0        
C1        C        0.125        0.685186        0.259179        0        
C1        C        0.1875        0.685186        0.259179        0        
C1        C        0.25        0.685186        0.259179        0        
C1        C        0.3125        0.685186        0.259179        0        
C1        C        0.375        0.685186        0.259179        0        
C1        C        0.4375        0.685186        0.259179        0        
C1        C        0.5        0.685186        0.259179        0        
C1        C        0.5625        0.685186        0.259179        0        
C1        C        0.625        0.685186        0.259179        0        
C1        C        0.6875        0.685186        0.259179        0        
C1        C        0.75        0.685186        0.259179        0        
C1        C        0.8125        0.685186        0.259179        0        
C1        C        0.875        0.685186        0.259179        0        
C1        C        0.9375        0.685186        0.259179        0        
C2        C        0.03125        0.740741        0.259179        0        
C2        C        0.09375        0.740741        0.259179        0        
C2        C        0.15625        0.740741        0.259179        0        
C2        C        0.21875        0.740741        0.259179        0        
C2        C        0.28125        0.740741        0.259179        0        
C2        C        0.34375        0.740741        0.259179        0        
C2        C        0.40625        0.740741        0.259179        0        
C2        C        0.46875        0.740741        0.259179        0        
C2        C        0.53125        0.740741        0.259179        0        
C2        C        0.59375        0.740741        0.259179        0        
C2        C        0.65625        0.740741        0.259179        0        
C2        C        0.71875        0.740741        0.259179        0        
C2        C        0.78125        0.740741        0.259179        0        
C2        C        0.84375        0.740741        0.259179        0        
C2        C        0.9062500000000001        0.740741        0.259179        0        
C2        C        0.9687500000000001        0.740741        0.259179        0        
C3        C        0.0        0.759259        0.259179        0        
C3        C        0.0625        0.759259        0.259179        0        
C3        C        0.125        0.759259        0.259179        0        
C3        C        0.1875        0.759259        0.259179        0        
C3        C        0.25        0.759259        0.259179        0        
C3        C        0.3125        0.759259        0.259179        0        
C3        C        0.375        0.759259        0.259179        0        
C3        C        0.4375        0.759259        0.259179        0        
C3        C        0.5        0.759259        0.259179        0        
C3        C        0.5625        0.759259        0.259179        0        
C3        C        0.625        0.759259        0.259179        0        
C3        C        0.6875        0.759259        0.259179        0        
C3        C        0.75        0.759259        0.259179        0        
C3        C        0.8125        0.759259        0.259179        0        
C3        C        0.875        0.759259        0.259179        0        
C3        C        0.9375        0.759259        0.259179        0        
C4        C        0.03125        0.703703        0.259179        0        
C4        C        0.09375        0.703703        0.259179        0        
C4        C        0.15625        0.703703        0.259179        0        
C4        C        0.21875        0.703703        0.259179        0        
C4        C        0.28125        0.703703        0.259179        0        
C4        C        0.34375        0.703703        0.259179        0        
C4        C        0.40625        0.703703        0.259179        0        
C4        C        0.46875        0.703703        0.259179        0        
C4        C        0.53125        0.703703        0.259179        0        
C4        C        0.59375        0.703703        0.259179        0        
C4        C        0.65625        0.703703        0.259179        0        
C4        C        0.71875        0.703703        0.259179        0        
C4        C        0.78125        0.703703        0.259179        0        
C4        C        0.84375        0.703703        0.259179        0        
C4        C        0.9062500000000001        0.703703        0.259179        0        
C4        C        0.9687500000000001        0.703703        0.259179        0        
C1        C        0.0        0.796297        0.259179        0        
C1        C        0.0625        0.796297        0.259179        0        
C1        C        0.125        0.796297        0.259179        0        
C1        C        0.1875        0.796297        0.259179        0        
C1        C        0.25        0.796297        0.259179        0        
C1        C        0.3125        0.796297        0.259179        0        
C1        C        0.375        0.796297        0.259179        0        
C1        C        0.4375        0.796297        0.259179        0        
C1        C        0.5        0.796297        0.259179        0        
C1        C        0.5625        0.796297        0.259179        0        
C1        C        0.625        0.796297        0.259179        0        
C1        C        0.6875        0.796297        0.259179        0        
C1        C        0.75        0.796297        0.259179        0        
C1        C        0.8125        0.796297        0.259179        0        
C1        C        0.875        0.796297        0.259179        0        
C1        C        0.9375        0.796297        0.259179        0        
C2        C        0.03125        0.851852        0.259179        0        
C2        C        0.09375        0.851852        0.259179        0        
C2        C        0.15625        0.851852        0.259179        0        
C2        C        0.21875        0.851852        0.259179        0        
C2        C        0.28125        0.851852        0.259179        0        
C2        C        0.34375        0.851852        0.259179        0        
C2        C        0.40625        0.851852        0.259179        0        
C2        C        0.46875        0.851852        0.259179        0        
C2        C        0.53125        0.851852        0.259179        0        
C2        C        0.59375        0.851852        0.259179        0        
C2        C        0.65625        0.851852        0.259179        0        
C2        C        0.71875        0.851852        0.259179        0        
C2        C        0.78125        0.851852        0.259179        0        
C2        C        0.84375        0.851852        0.259179        0        
C2        C        0.9062500000000001        0.851852        0.259179        0        
C2        C        0.9687500000000001        0.851852        0.259179        0        
C3        C        0.0        0.87037        0.259179        0        
C3        C        0.0625        0.87037        0.259179        0        
C3        C        0.125        0.87037        0.259179        0        
C3        C        0.1875        0.87037        0.259179        0        
C3        C        0.25        0.87037        0.259179        0        
C3        C        0.3125        0.87037        0.259179        0        
C3        C        0.375        0.87037        0.259179        0        
C3        C        0.4375        0.87037        0.259179        0        
C3        C        0.5        0.87037        0.259179        0        
C3        C        0.5625        0.87037        0.259179        0        
C3        C        0.625        0.87037        0.259179        0        
C3        C        0.6875        0.87037        0.259179        0        
C3        C        0.75        0.87037        0.259179        0        
C3        C        0.8125        0.87037        0.259179        0        
C3        C        0.875        0.87037        0.259179        0        
C3        C        0.9375        0.87037        0.259179        0        
C4        C        0.03125        0.814814        0.259179        0        
C4        C        0.09375        0.814814        0.259179        0        
C4        C        0.15625        0.814814        0.259179        0        
C4        C        0.21875        0.814814        0.259179        0        
C4        C        0.28125        0.814814        0.259179        0        
C4        C        0.34375        0.814814        0.259179        0        
C4        C        0.40625        0.814814        0.259179        0        
C4        C        0.46875        0.814814        0.259179        0        
C4        C        0.53125        0.814814        0.259179        0        
C4        C        0.59375        0.814814        0.259179        0        
C4        C        0.65625        0.814814        0.259179        0        
C4        C        0.71875        0.814814        0.259179        0        
C4        C        0.78125        0.814814        0.259179        0        
C4        C        0.84375        0.814814        0.259179        0        
C4        C        0.9062500000000001        0.814814        0.259179        0        
C4        C        0.9687500000000001        0.814814        0.259179        0        
C1        C        0.0        0.907408        0.259179        0        
C1        C        0.0625        0.907408        0.259179        0        
C1        C        0.125        0.907408        0.259179        0        
C1        C        0.1875        0.907408        0.259179        0        
C1        C        0.25        0.907408        0.259179        0        
C1        C        0.3125        0.907408        0.259179        0        
C1        C        0.375        0.907408        0.259179        0        
C1        C        0.4375        0.907408        0.259179        0        
C1        C        0.5        0.907408        0.259179        0        
C1        C        0.5625        0.907408        0.259179        0        
C1        C        0.625        0.907408        0.259179        0        
C1        C        0.6875        0.907408        0.259179        0        
C1        C        0.75        0.907408        0.259179        0        
C1        C        0.8125        0.907408        0.259179        0        
C1        C        0.875        0.907408        0.259179        0        
C1        C        0.9375        0.907408        0.259179        0        
C2        C        0.03125        0.962963        0.259179        0        
C2        C        0.09375        0.962963        0.259179        0        
C2        C        0.15625        0.962963        0.259179        0        
C2        C        0.21875        0.962963        0.259179        0        
C2        C        0.28125        0.962963        0.259179        0        
C2        C        0.34375        0.962963        0.259179        0        
C2        C        0.40625        0.962963        0.259179        0        
C2        C        0.46875        0.962963        0.259179        0        
C2        C        0.53125        0.962963        0.259179        0        
C2        C        0.59375        0.962963        0.259179        0        
C2        C        0.65625        0.962963        0.259179        0        
C2        C        0.71875        0.962963        0.259179        0        
C2        C        0.78125        0.962963        0.259179        0        
C2        C        0.84375        0.962963        0.259179        0        
C2        C        0.9062500000000001        0.962963        0.259179        0        
C2        C        0.9687500000000001        0.962963        0.259179        0        
C3        C        0.0        0.9814809999999999        0.259179        0        
C3        C        0.0625        0.9814809999999999        0.259179        0        
C3        C        0.125        0.9814809999999999        0.259179        0        
C3        C        0.1875        0.9814809999999999        0.259179        0        
C3        C        0.25        0.9814809999999999        0.259179        0        
C3        C        0.3125        0.9814809999999999        0.259179        0        
C3        C        0.375        0.9814809999999999        0.259179        0        
C3        C        0.4375        0.9814809999999999        0.259179        0        
C3        C        0.5        0.9814809999999999        0.259179        0        
C3        C        0.5625        0.9814809999999999        0.259179        0        
C3        C        0.625        0.9814809999999999        0.259179        0        
C3        C        0.6875        0.9814809999999999        0.259179        0        
C3        C        0.75        0.9814809999999999        0.259179        0        
C3        C        0.8125        0.9814809999999999        0.259179        0        
C3        C        0.875        0.9814809999999999        0.259179        0        
C3        C        0.9375        0.9814809999999999        0.259179        0        
C4        C        0.03125        0.925925        0.259179        0        
C4        C        0.09375        0.925925        0.259179        0        
C4        C        0.15625        0.925925        0.259179        0        
C4        C        0.21875        0.925925        0.259179        0        
C4        C        0.28125        0.925925        0.259179        0        
C4        C        0.34375        0.925925        0.259179        0        
C4        C        0.40625        0.925925        0.259179        0        
C4        C        0.46875        0.925925        0.259179        0        
C4        C        0.53125        0.925925        0.259179        0        
C4        C        0.59375        0.925925        0.259179        0        
C4        C        0.65625        0.925925        0.259179        0        
C4        C        0.71875        0.925925        0.259179        0        
C4        C        0.78125        0.925925        0.259179        0        
C4        C        0.84375        0.925925        0.259179        0        
C4        C        0.9062500000000001        0.925925        0.259179        0        
C4        C        0.9687500000000001        0.925925        0.259179        0        
C1        C        0.0        0.018519        0.331534        0        
C2        C        0.03125        0.074075        0.331534        0        
C3        C        0.0        0.092592        0.331534        0        
C4        C        0.03125        0.037037        0.331534        0        
C1        C        0.0        0.12963        0.331534        0        
C2        C        0.03125        0.185185        0.331534        0        
C3        C        0.0        0.203703        0.331534        0        
C4        C        0.03125        0.148148        0.331534        0        
C1        C        0.0        0.24074099999999998        0.331534        0        
C2        C        0.03125        0.296297        0.331534        0        
C3        C        0.0        0.314815        0.331534        0        
C4        C        0.03125        0.259259        0.331534        0        
C1        C        0.0        0.351852        0.331534        0        
C2        C        0.03125        0.407408        0.331534        0        
C3        C        0.0        0.42592500000000005        0.331534        0        
C4        C        0.03125        0.37037        0.331534        0        
C1        C        0.0        0.46296300000000007        0.331534        0        
C2        C        0.03125        0.518519        0.331534        0        
C3        C        0.0        0.537037        0.331534        0        
C4        C        0.03125        0.481481        0.331534        0        
C1        C        0.0        0.574075        0.331534        0        
C2        C        0.03125        0.62963        0.331534        0        
C3        C        0.0        0.648148        0.331534        0        
C4        C        0.03125        0.592592        0.331534        0        
C1        C        0.0625        0.018519        0.331534        0        
C2        C        0.09375        0.074075        0.331534        0        
C3        C        0.0625        0.092592        0.331534        0        
C4        C        0.09375        0.037037        0.331534        0        
C1        C        0.0625        0.12963        0.331534        0        
C2        C        0.09375        0.185185        0.331534        0        
C3        C        0.0625        0.203703        0.331534        0        
C4        C        0.09375        0.148148        0.331534        0        
C1        C        0.0625        0.24074099999999998        0.331534        0        
C2        C        0.09375        0.296297        0.331534        0        
C3        C        0.0625        0.314815        0.331534        0        
C4        C        0.09375        0.259259        0.331534        0        
C1        C        0.0625        0.351852        0.331534        0        
C2        C        0.09375        0.407408        0.331534        0        
C3        C        0.0625        0.42592500000000005        0.331534        0        
C4        C        0.09375        0.37037        0.331534        0        
C1        C        0.0625        0.46296300000000007        0.331534        0        
C2        C        0.09375        0.518519        0.331534        0        
C3        C        0.0625        0.537037        0.331534        0        
C4        C        0.09375        0.481481        0.331534        0        
C1        C        0.0625        0.574075        0.331534        0        
C2        C        0.09375        0.62963        0.331534        0        
C3        C        0.0625        0.648148        0.331534        0        
C4        C        0.09375        0.592592        0.331534        0        
C1        C        0.125        0.018519        0.331534        0        
C2        C        0.15625        0.074075        0.331534        0        
C3        C        0.125        0.092592        0.331534        0        
C4        C        0.15625        0.037037        0.331534        0        
C1        C        0.125        0.12963        0.331534        0        
C2        C        0.15625        0.185185        0.331534        0        
C3        C        0.125        0.203703        0.331534        0        
C4        C        0.15625        0.148148        0.331534        0        
C1        C        0.125        0.24074099999999998        0.331534        0        
C2        C        0.15625        0.296297        0.331534        0        
C3        C        0.125        0.314815        0.331534        0        
C4        C        0.15625        0.259259        0.331534        0        
C1        C        0.125        0.351852        0.331534        0        
C2        C        0.15625        0.407408        0.331534        0        
C3        C        0.125        0.42592500000000005        0.331534        0        
C4        C        0.15625        0.37037        0.331534        0        
C1        C        0.125        0.46296300000000007        0.331534        0        
C2        C        0.15625        0.518519        0.331534        0        
C3        C        0.125        0.537037        0.331534        0        
C4        C        0.15625        0.481481        0.331534        0        
C1        C        0.125        0.574075        0.331534        0        
C2        C        0.15625        0.62963        0.331534        0        
C3        C        0.125        0.648148        0.331534        0        
C4        C        0.15625        0.592592        0.331534        0        
C1        C        0.1875        0.018519        0.331534        0        
C2        C        0.21875        0.074075        0.331534        0        
C3        C        0.1875        0.092592        0.331534        0        
C4        C        0.21875        0.037037        0.331534        0        
C1        C        0.1875        0.12963        0.331534        0        
C2        C        0.21875        0.185185        0.331534        0        
C3        C        0.1875        0.203703        0.331534        0        
C4        C        0.21875        0.148148        0.331534        0        
C1        C        0.1875        0.24074099999999998        0.331534        0        
C2        C        0.21875        0.296297        0.331534        0        
C3        C        0.1875        0.314815        0.331534        0        
C4        C        0.21875        0.259259        0.331534        0        
C1        C        0.1875        0.351852        0.331534        0        
C2        C        0.21875        0.407408        0.331534        0        
C3        C        0.1875        0.42592500000000005        0.331534        0        
C4        C        0.21875        0.37037        0.331534        0        
C1        C        0.1875        0.46296300000000007        0.331534        0        
C2        C        0.21875        0.518519        0.331534        0        
C3        C        0.1875        0.537037        0.331534        0        
C4        C        0.21875        0.481481        0.331534        0        
C1        C        0.1875        0.574075        0.331534        0        
C2        C        0.21875        0.62963        0.331534        0        
C3        C        0.1875        0.648148        0.331534        0        
C4        C        0.21875        0.592592        0.331534        0        
C1        C        0.25        0.018519        0.331534        0        
C2        C        0.28125        0.074075        0.331534        0        
C3        C        0.25        0.092592        0.331534        0        
C4        C        0.28125        0.037037        0.331534        0        
C1        C        0.25        0.12963        0.331534        0        
C2        C        0.28125        0.185185        0.331534        0        
C3        C        0.25        0.203703        0.331534        0        
C4        C        0.28125        0.148148        0.331534        0        
C1        C        0.25        0.24074099999999998        0.331534        0        
C2        C        0.28125        0.296297        0.331534        0        
C3        C        0.25        0.314815        0.331534        0        
C4        C        0.28125        0.259259        0.331534        0        
C1        C        0.25        0.351852        0.331534        0        
C2        C        0.28125        0.407408        0.331534        0        
C3        C        0.25        0.42592500000000005        0.331534        0        
C4        C        0.28125        0.37037        0.331534        0        
C1        C        0.25        0.46296300000000007        0.331534        0        
C2        C        0.28125        0.518519        0.331534        0        
C3        C        0.25        0.537037        0.331534        0        
C4        C        0.28125        0.481481        0.331534        0        
C1        C        0.25        0.574075        0.331534        0        
C2        C        0.28125        0.62963        0.331534        0        
C3        C        0.25        0.648148        0.331534        0        
C4        C        0.28125        0.592592        0.331534        0        
C1        C        0.3125        0.018519        0.331534        0        
C2        C        0.34375        0.074075        0.331534        0        
C3        C        0.3125        0.092592        0.331534        0        
C4        C        0.34375        0.037037        0.331534        0        
C1        C        0.3125        0.12963        0.331534        0        
C2        C        0.34375        0.185185        0.331534        0        
C3        C        0.3125        0.203703        0.331534        0        
C4        C        0.34375        0.148148        0.331534        0        
C1        C        0.3125        0.24074099999999998        0.331534        0        
C2        C        0.34375        0.296297        0.331534        0        
C3        C        0.3125        0.314815        0.331534        0        
C4        C        0.34375        0.259259        0.331534        0        
C1        C        0.3125        0.351852        0.331534        0        
C2        C        0.34375        0.407408        0.331534        0        
C3        C        0.3125        0.42592500000000005        0.331534        0        
C4        C        0.34375        0.37037        0.331534        0        
C1        C        0.3125        0.46296300000000007        0.331534        0        
C2        C        0.34375        0.518519        0.331534        0        
C3        C        0.3125        0.537037        0.331534        0        
C4        C        0.34375        0.481481        0.331534        0        
C1        C        0.3125        0.574075        0.331534        0        
C2        C        0.34375        0.62963        0.331534        0        
C3        C        0.3125        0.648148        0.331534        0        
C4        C        0.34375        0.592592        0.331534        0        
C1        C        0.375        0.018519        0.331534        0        
C2        C        0.40625        0.074075        0.331534        0        
C3        C        0.375        0.092592        0.331534        0        
C4        C        0.40625        0.037037        0.331534        0        
C1        C        0.375        0.12963        0.331534        0        
C2        C        0.40625        0.185185        0.331534        0        
C3        C        0.375        0.203703        0.331534        0        
C4        C        0.40625        0.148148        0.331534        0        
C1        C        0.375        0.24074099999999998        0.331534        0        
C2        C        0.40625        0.296297        0.331534        0        
C3        C        0.375        0.314815        0.331534        0        
C4        C        0.40625        0.259259        0.331534        0        
C1        C        0.375        0.351852        0.331534        0        
C2        C        0.40625        0.407408        0.331534        0        
C3        C        0.375        0.42592500000000005        0.331534        0        
C4        C        0.40625        0.37037        0.331534        0        
C1        C        0.375        0.46296300000000007        0.331534        0        
C2        C        0.40625        0.518519        0.331534        0        
C3        C        0.375        0.537037        0.331534        0        
C4        C        0.40625        0.481481        0.331534        0        
C1        C        0.375        0.574075        0.331534        0        
C2        C        0.40625        0.62963        0.331534        0        
C3        C        0.375        0.648148        0.331534        0        
C4        C        0.40625        0.592592        0.331534        0        
C1        C        0.4375        0.018519        0.331534        0        
C2        C        0.46875        0.074075        0.331534        0        
C3        C        0.4375        0.092592        0.331534        0        
C4        C        0.46875        0.037037        0.331534        0        
C1        C        0.4375        0.12963        0.331534        0        
C2        C        0.46875        0.185185        0.331534        0        
C3        C        0.4375        0.203703        0.331534        0        
C4        C        0.46875        0.148148        0.331534        0        
C1        C        0.4375        0.24074099999999998        0.331534        0        
C2        C        0.46875        0.296297        0.331534        0        
C3        C        0.4375        0.314815        0.331534        0        
C4        C        0.46875        0.259259        0.331534        0        
C1        C        0.4375        0.351852        0.331534        0        
C2        C        0.46875        0.407408        0.331534        0        
C3        C        0.4375        0.42592500000000005        0.331534        0        
C4        C        0.46875        0.37037        0.331534        0        
C1        C        0.4375        0.46296300000000007        0.331534        0        
C2        C        0.46875        0.518519        0.331534        0        
C3        C        0.4375        0.537037        0.331534        0        
C4        C        0.46875        0.481481        0.331534        0        
C1        C        0.4375        0.574075        0.331534        0        
C2        C        0.46875        0.62963        0.331534        0        
C3        C        0.4375        0.648148        0.331534        0        
C4        C        0.46875        0.592592        0.331534        0        
C1        C        0.5        0.018519        0.331534        0        
C2        C        0.53125        0.074075        0.331534        0        
C3        C        0.5        0.092592        0.331534        0        
C4        C        0.53125        0.037037        0.331534        0        
C1        C        0.5        0.12963        0.331534        0        
C2        C        0.53125        0.185185        0.331534        0        
C3        C        0.5        0.203703        0.331534        0        
C4        C        0.53125        0.148148        0.331534        0        
C1        C        0.5        0.24074099999999998        0.331534        0        
C2        C        0.53125        0.296297        0.331534        0        
C3        C        0.5        0.314815        0.331534        0        
C4        C        0.53125        0.259259        0.331534        0        
C1        C        0.5        0.351852        0.331534        0        
C2        C        0.53125        0.407408        0.331534        0        
C3        C        0.5        0.42592500000000005        0.331534        0        
C4        C        0.53125        0.37037        0.331534        0        
C1        C        0.5        0.46296300000000007        0.331534        0        
C2        C        0.53125        0.518519        0.331534        0        
C3        C        0.5        0.537037        0.331534        0        
C4        C        0.53125        0.481481        0.331534        0        
C1        C        0.5        0.574075        0.331534        0        
C2        C        0.53125        0.62963        0.331534        0        
C3        C        0.5        0.648148        0.331534        0        
C4        C        0.53125        0.592592        0.331534        0        
C1        C        0.5625        0.018519        0.331534        0        
C2        C        0.59375        0.074075        0.331534        0        
C3        C        0.5625        0.092592        0.331534        0        
C4        C        0.59375        0.037037        0.331534        0        
C1        C        0.5625        0.12963        0.331534        0        
C2        C        0.59375        0.185185        0.331534        0        
C3        C        0.5625        0.203703        0.331534        0        
C4        C        0.59375        0.148148        0.331534        0        
C1        C        0.5625        0.24074099999999998        0.331534        0        
C2        C        0.59375        0.296297        0.331534        0        
C3        C        0.5625        0.314815        0.331534        0        
C4        C        0.59375        0.259259        0.331534        0        
C1        C        0.5625        0.351852        0.331534        0        
C2        C        0.59375        0.407408        0.331534        0        
C3        C        0.5625        0.42592500000000005        0.331534        0        
C4        C        0.59375        0.37037        0.331534        0        
C1        C        0.5625        0.46296300000000007        0.331534        0        
C2        C        0.59375        0.518519        0.331534        0        
C3        C        0.5625        0.537037        0.331534        0        
C4        C        0.59375        0.481481        0.331534        0        
C1        C        0.5625        0.574075        0.331534        0        
C2        C        0.59375        0.62963        0.331534        0        
C3        C        0.5625        0.648148        0.331534        0        
C4        C        0.59375        0.592592        0.331534        0        
C1        C        0.625        0.018519        0.331534        0        
C2        C        0.65625        0.074075        0.331534        0        
C3        C        0.625        0.092592        0.331534        0        
C4        C        0.65625        0.037037        0.331534        0        
C1        C        0.625        0.12963        0.331534        0        
C2        C        0.65625        0.185185        0.331534        0        
C3        C        0.625        0.203703        0.331534        0        
C4        C        0.65625        0.148148        0.331534        0        
C1        C        0.625        0.24074099999999998        0.331534        0        
C2        C        0.65625        0.296297        0.331534        0        
C3        C        0.625        0.314815        0.331534        0        
C4        C        0.65625        0.259259        0.331534        0        
C1        C        0.625        0.351852        0.331534        0        
C2        C        0.65625        0.407408        0.331534        0        
C3        C        0.625        0.42592500000000005        0.331534        0        
C4        C        0.65625        0.37037        0.331534        0        
C1        C        0.625        0.46296300000000007        0.331534        0        
C2        C        0.65625        0.518519        0.331534        0        
C3        C        0.625        0.537037        0.331534        0        
C4        C        0.65625        0.481481        0.331534        0        
C1        C        0.625        0.574075        0.331534        0        
C2        C        0.65625        0.62963        0.331534        0        
C3        C        0.625        0.648148        0.331534        0        
C4        C        0.65625        0.592592        0.331534        0        
C1        C        0.6875        0.018519        0.331534        0        
C2        C        0.71875        0.074075        0.331534        0        
C3        C        0.6875        0.092592        0.331534        0        
C4        C        0.71875        0.037037        0.331534        0        
C1        C        0.6875        0.12963        0.331534        0        
C2        C        0.71875        0.185185        0.331534        0        
C3        C        0.6875        0.203703        0.331534        0        
C4        C        0.71875        0.148148        0.331534        0        
C1        C        0.6875        0.24074099999999998        0.331534        0        
C2        C        0.71875        0.296297        0.331534        0        
C3        C        0.6875        0.314815        0.331534        0        
C4        C        0.71875        0.259259        0.331534        0        
C1        C        0.6875        0.351852        0.331534        0        
C2        C        0.71875        0.407408        0.331534        0        
C3        C        0.6875        0.42592500000000005        0.331534        0        
C4        C        0.71875        0.37037        0.331534        0        
C1        C        0.6875        0.46296300000000007        0.331534        0        
C2        C        0.71875        0.518519        0.331534        0        
C3        C        0.6875        0.537037        0.331534        0        
C4        C        0.71875        0.481481        0.331534        0        
C1        C        0.6875        0.574075        0.331534        0        
C2        C        0.71875        0.62963        0.331534        0        
C3        C        0.6875        0.648148        0.331534        0        
C4        C        0.71875        0.592592        0.331534        0        
C1        C        0.75        0.018519        0.331534        0        
C2        C        0.78125        0.074075        0.331534        0        
C3        C        0.75        0.092592        0.331534        0        
C4        C        0.78125        0.037037        0.331534        0        
C1        C        0.75        0.12963        0.331534        0        
C2        C        0.78125        0.185185        0.331534        0        
C3        C        0.75        0.203703        0.331534        0        
C4        C        0.78125        0.148148        0.331534        0        
C1        C        0.75        0.24074099999999998        0.331534        0        
C2        C        0.78125        0.296297        0.331534        0        
C3        C        0.75        0.314815        0.331534        0        
C4        C        0.78125        0.259259        0.331534        0        
C1        C        0.75        0.351852        0.331534        0        
C2        C        0.78125        0.407408        0.331534        0        
C3        C        0.75        0.42592500000000005        0.331534        0        
C4        C        0.78125        0.37037        0.331534        0        
C1        C        0.75        0.46296300000000007        0.331534        0        
C2        C        0.78125        0.518519        0.331534        0        
C3        C        0.75        0.537037        0.331534        0        
C4        C        0.78125        0.481481        0.331534        0        
C1        C        0.75        0.574075        0.331534        0        
C2        C        0.78125        0.62963        0.331534        0        
C3        C        0.75        0.648148        0.331534        0        
C4        C        0.78125        0.592592        0.331534        0        
C1        C        0.8125        0.018519        0.331534        0        
C2        C        0.84375        0.074075        0.331534        0        
C3        C        0.8125        0.092592        0.331534        0        
C4        C        0.84375        0.037037        0.331534        0        
C1        C        0.8125        0.12963        0.331534        0        
C2        C        0.84375        0.185185        0.331534        0        
C3        C        0.8125        0.203703        0.331534        0        
C4        C        0.84375        0.148148        0.331534        0        
C1        C        0.8125        0.24074099999999998        0.331534        0        
C2        C        0.84375        0.296297        0.331534        0        
C3        C        0.8125        0.314815        0.331534        0        
C4        C        0.84375        0.259259        0.331534        0        
C1        C        0.8125        0.351852        0.331534        0        
C2        C        0.84375        0.407408        0.331534        0        
C3        C        0.8125        0.42592500000000005        0.331534        0        
C4        C        0.84375        0.37037        0.331534        0        
C1        C        0.8125        0.46296300000000007        0.331534        0        
C2        C        0.84375        0.518519        0.331534        0        
C3        C        0.8125        0.537037        0.331534        0        
C4        C        0.84375        0.481481        0.331534        0        
C1        C        0.8125        0.574075        0.331534        0        
C2        C        0.84375        0.62963        0.331534        0        
C3        C        0.8125        0.648148        0.331534        0        
C4        C        0.84375        0.592592        0.331534        0        
C1        C        0.875        0.018519        0.331534        0        
C2        C        0.9062500000000001        0.074075        0.331534        0        
C3        C        0.875        0.092592        0.331534        0        
C4        C        0.9062500000000001        0.037037        0.331534        0        
C1        C        0.875        0.12963        0.331534        0        
C2        C        0.9062500000000001        0.185185        0.331534        0        
C3        C        0.875        0.203703        0.331534        0        
C4        C        0.9062500000000001        0.148148        0.331534        0        
C1        C        0.875        0.24074099999999998        0.331534        0        
C2        C        0.9062500000000001        0.296297        0.331534        0        
C3        C        0.875        0.314815        0.331534        0        
C4        C        0.9062500000000001        0.259259        0.331534        0        
C1        C        0.875        0.351852        0.331534        0        
C2        C        0.9062500000000001        0.407408        0.331534        0        
C3        C        0.875        0.42592500000000005        0.331534        0        
C4        C        0.9062500000000001        0.37037        0.331534        0        
C1        C        0.875        0.46296300000000007        0.331534        0        
C2        C        0.9062500000000001        0.518519        0.331534        0        
C3        C        0.875        0.537037        0.331534        0        
C4        C        0.9062500000000001        0.481481        0.331534        0        
C1        C        0.875        0.574075        0.331534        0        
C2        C        0.9062500000000001        0.62963        0.331534        0        
C3        C        0.875        0.648148        0.331534        0        
C4        C        0.9062500000000001        0.592592        0.331534        0        
C1        C        0.9375        0.018519        0.331534        0        
C2        C        0.9687500000000001        0.074075        0.331534        0        
C3        C        0.9375        0.092592        0.331534        0        
C4        C        0.9687500000000001        0.037037        0.331534        0        
C1        C        0.9375        0.12963        0.331534        0        
C2        C        0.9687500000000001        0.185185        0.331534        0        
C3        C        0.9375        0.203703        0.331534        0        
C4        C        0.9687500000000001        0.148148        0.331534        0        
C1        C        0.9375        0.24074099999999998        0.331534        0        
C2        C        0.9687500000000001        0.296297        0.331534        0        
C3        C        0.9375        0.314815        0.331534        0        
C4        C        0.9687500000000001        0.259259        0.331534        0        
C1        C        0.9375        0.351852        0.331534        0        
C2        C        0.9687500000000001        0.407408        0.331534        0        
C3        C        0.9375        0.42592500000000005        0.331534        0        
C4        C        0.9687500000000001        0.37037        0.331534        0        
C1        C        0.9375        0.46296300000000007        0.331534        0        
C2        C        0.9687500000000001        0.518519        0.331534        0        
C3        C        0.9375        0.537037        0.331534        0        
C4        C        0.9687500000000001        0.481481        0.331534        0        
C1        C        0.9375        0.574075        0.331534        0        
C2        C        0.9687500000000001        0.62963        0.331534        0        
C3        C        0.9375        0.648148        0.331534        0        
C4        C        0.9687500000000001        0.592592        0.331534        0        
C1        C        0.0        0.685186        0.331534        0        
C1        C        0.0625        0.685186        0.331534        0        
C1        C        0.125        0.685186        0.331534        0        
C1        C        0.1875        0.685186        0.331534        0        
C1        C        0.25        0.685186        0.331534        0        
C1        C        0.3125        0.685186        0.331534        0        
C1        C        0.375        0.685186        0.331534        0        
C1        C        0.4375        0.685186        0.331534        0        
C1        C        0.5        0.685186        0.331534        0        
C1        C        0.5625        0.685186        0.331534        0        
C1        C        0.625        0.685186        0.331534        0        
C1        C        0.6875        0.685186        0.331534        0        
C1        C        0.75        0.685186        0.331534        0        
C1        C        0.8125        0.685186        0.331534        0        
C1        C        0.875        0.685186        0.331534        0        
C1        C        0.9375        0.685186        0.331534        0        
C2        C        0.03125        0.740741        0.331534        0        
C2        C        0.09375        0.740741        0.331534        0        
C2        C        0.15625        0.740741        0.331534        0        
C2        C        0.21875        0.740741        0.331534        0        
C2        C        0.28125        0.740741        0.331534        0        
C2        C        0.34375        0.740741        0.331534        0        
C2        C        0.40625        0.740741        0.331534        0        
C2        C        0.46875        0.740741        0.331534        0        
C2        C        0.53125        0.740741        0.331534        0        
C2        C        0.59375        0.740741        0.331534        0        
C2        C        0.65625        0.740741        0.331534        0        
C2        C        0.71875        0.740741        0.331534        0        
C2        C        0.78125        0.740741        0.331534        0        
C2        C        0.84375        0.740741        0.331534        0        
C2        C        0.9062500000000001        0.740741        0.331534        0        
C2        C        0.9687500000000001        0.740741        0.331534        0        
C3        C        0.0        0.759259        0.331534        0        
C3        C        0.0625        0.759259        0.331534        0        
C3        C        0.125        0.759259        0.331534        0        
C3        C        0.1875        0.759259        0.331534        0        
C3        C        0.25        0.759259        0.331534        0        
C3        C        0.3125        0.759259        0.331534        0        
C3        C        0.375        0.759259        0.331534        0        
C3        C        0.4375        0.759259        0.331534        0        
C3        C        0.5        0.759259        0.331534        0        
C3        C        0.5625        0.759259        0.331534        0        
C3        C        0.625        0.759259        0.331534        0        
C3        C        0.6875        0.759259        0.331534        0        
C3        C        0.75        0.759259        0.331534        0        
C3        C        0.8125        0.759259        0.331534        0        
C3        C        0.875        0.759259        0.331534        0        
C3        C        0.9375        0.759259        0.331534        0        
C4        C        0.03125        0.703703        0.331534        0        
C4        C        0.09375        0.703703        0.331534        0        
C4        C        0.15625        0.703703        0.331534        0        
C4        C        0.21875        0.703703        0.331534        0        
C4        C        0.28125        0.703703        0.331534        0        
C4        C        0.34375        0.703703        0.331534        0        
C4        C        0.40625        0.703703        0.331534        0        
C4        C        0.46875        0.703703        0.331534        0        
C4        C        0.53125        0.703703        0.331534        0        
C4        C        0.59375        0.703703        0.331534        0        
C4        C        0.65625        0.703703        0.331534        0        
C4        C        0.71875        0.703703        0.331534        0        
C4        C        0.78125        0.703703        0.331534        0        
C4        C        0.84375        0.703703        0.331534        0        
C4        C        0.9062500000000001        0.703703        0.331534        0        
C4        C        0.9687500000000001        0.703703        0.331534        0        
C1        C        0.0        0.796297        0.331534        0        
C1        C        0.0625        0.796297        0.331534        0        
C1        C        0.125        0.796297        0.331534        0        
C1        C        0.1875        0.796297        0.331534        0        
C1        C        0.25        0.796297        0.331534        0        
C1        C        0.3125        0.796297        0.331534        0        
C1        C        0.375        0.796297        0.331534        0        
C1        C        0.4375        0.796297        0.331534        0        
C1        C        0.5        0.796297        0.331534        0        
C1        C        0.5625        0.796297        0.331534        0        
C1        C        0.625        0.796297        0.331534        0        
C1        C        0.6875        0.796297        0.331534        0        
C1        C        0.75        0.796297        0.331534        0        
C1        C        0.8125        0.796297        0.331534        0        
C1        C        0.875        0.796297        0.331534        0        
C1        C        0.9375        0.796297        0.331534        0        
C2        C        0.03125        0.851852        0.331534        0        
C2        C        0.09375        0.851852        0.331534        0        
C2        C        0.15625        0.851852        0.331534        0        
C2        C        0.21875        0.851852        0.331534        0        
C2        C        0.28125        0.851852        0.331534        0        
C2        C        0.34375        0.851852        0.331534        0        
C2        C        0.40625        0.851852        0.331534        0        
C2        C        0.46875        0.851852        0.331534        0        
C2        C        0.53125        0.851852        0.331534        0        
C2        C        0.59375        0.851852        0.331534        0        
C2        C        0.65625        0.851852        0.331534        0        
C2        C        0.71875        0.851852        0.331534        0        
C2        C        0.78125        0.851852        0.331534        0        
C2        C        0.84375        0.851852        0.331534        0        
C2        C        0.9062500000000001        0.851852        0.331534        0        
C2        C        0.9687500000000001        0.851852        0.331534        0        
C3        C        0.0        0.87037        0.331534        0        
C3        C        0.0625        0.87037        0.331534        0        
C3        C        0.125        0.87037        0.331534        0        
C3        C        0.1875        0.87037        0.331534        0        
C3        C        0.25        0.87037        0.331534        0        
C3        C        0.3125        0.87037        0.331534        0        
C3        C        0.375        0.87037        0.331534        0        
C3        C        0.4375        0.87037        0.331534        0        
C3        C        0.5        0.87037        0.331534        0        
C3        C        0.5625        0.87037        0.331534        0        
C3        C        0.625        0.87037        0.331534        0        
C3        C        0.6875        0.87037        0.331534        0        
C3        C        0.75        0.87037        0.331534        0        
C3        C        0.8125        0.87037        0.331534        0        
C3        C        0.875        0.87037        0.331534        0        
C3        C        0.9375        0.87037        0.331534        0        
C4        C        0.03125        0.814814        0.331534        0        
C4        C        0.09375        0.814814        0.331534        0        
C4        C        0.15625        0.814814        0.331534        0        
C4        C        0.21875        0.814814        0.331534        0        
C4        C        0.28125        0.814814        0.331534        0        
C4        C        0.34375        0.814814        0.331534        0        
C4        C        0.40625        0.814814        0.331534        0        
C4        C        0.46875        0.814814        0.331534        0        
C4        C        0.53125        0.814814        0.331534        0        
C4        C        0.59375        0.814814        0.331534        0        
C4        C        0.65625        0.814814        0.331534        0        
C4        C        0.71875        0.814814        0.331534        0        
C4        C        0.78125        0.814814        0.331534        0        
C4        C        0.84375        0.814814        0.331534        0        
C4        C        0.9062500000000001        0.814814        0.331534        0        
C4        C        0.9687500000000001        0.814814        0.331534        0        
C1        C        0.0        0.907408        0.331534        0        
C1        C        0.0625        0.907408        0.331534        0        
C1        C        0.125        0.907408        0.331534        0        
C1        C        0.1875        0.907408        0.331534        0        
C1        C        0.25        0.907408        0.331534        0        
C1        C        0.3125        0.907408        0.331534        0        
C1        C        0.375        0.907408        0.331534        0        
C1        C        0.4375        0.907408        0.331534        0        
C1        C        0.5        0.907408        0.331534        0        
C1        C        0.5625        0.907408        0.331534        0        
C1        C        0.625        0.907408        0.331534        0        
C1        C        0.6875        0.907408        0.331534        0        
C1        C        0.75        0.907408        0.331534        0        
C1        C        0.8125        0.907408        0.331534        0        
C1        C        0.875        0.907408        0.331534        0        
C1        C        0.9375        0.907408        0.331534        0        
C2        C        0.03125        0.962963        0.331534        0        
C2        C        0.09375        0.962963        0.331534        0        
C2        C        0.15625        0.962963        0.331534        0        
C2        C        0.21875        0.962963        0.331534        0        
C2        C        0.28125        0.962963        0.331534        0        
C2        C        0.34375        0.962963        0.331534        0        
C2        C        0.40625        0.962963        0.331534        0        
C2        C        0.46875        0.962963        0.331534        0        
C2        C        0.53125        0.962963        0.331534        0        
C2        C        0.59375        0.962963        0.331534        0        
C2        C        0.65625        0.962963        0.331534        0        
C2        C        0.71875        0.962963        0.331534        0        
C2        C        0.78125        0.962963        0.331534        0        
C2        C        0.84375        0.962963        0.331534        0        
C2        C        0.9062500000000001        0.962963        0.331534        0        
C2        C        0.9687500000000001        0.962963        0.331534        0        
C3        C        0.0        0.9814809999999999        0.331534        0        
C3        C        0.0625        0.9814809999999999        0.331534        0        
C3        C        0.125        0.9814809999999999        0.331534        0        
C3        C        0.1875        0.9814809999999999        0.331534        0        
C3        C        0.25        0.9814809999999999        0.331534        0        
C3        C        0.3125        0.9814809999999999        0.331534        0        
C3        C        0.375        0.9814809999999999        0.331534        0        
C3        C        0.4375        0.9814809999999999        0.331534        0        
C3        C        0.5        0.9814809999999999        0.331534        0        
C3        C        0.5625        0.9814809999999999        0.331534        0        
C3        C        0.625        0.9814809999999999        0.331534        0        
C3        C        0.6875        0.9814809999999999        0.331534        0        
C3        C        0.75        0.9814809999999999        0.331534        0        
C3        C        0.8125        0.9814809999999999        0.331534        0        
C3        C        0.875        0.9814809999999999        0.331534        0        
C3        C        0.9375        0.9814809999999999        0.331534        0        
C4        C        0.03125        0.925925        0.331534        0        
C4        C        0.09375        0.925925        0.331534        0        
C4        C        0.15625        0.925925        0.331534        0        
C4        C        0.21875        0.925925        0.331534        0        
C4        C        0.28125        0.925925        0.331534        0        
C4        C        0.34375        0.925925        0.331534        0        
C4        C        0.40625        0.925925        0.331534        0        
C4        C        0.46875        0.925925        0.331534        0        
C4        C        0.53125        0.925925        0.331534        0        
C4        C        0.59375        0.925925        0.331534        0        
C4        C        0.65625        0.925925        0.331534        0        
C4        C        0.71875        0.925925        0.331534        0        
C4        C        0.78125        0.925925        0.331534        0        
C4        C        0.84375        0.925925        0.331534        0        
C4        C        0.9062500000000001        0.925925        0.331534        0        
C4        C        0.9687500000000001        0.925925        0.331534        0        
C_FG        C        0.0        0.018519        0.403888        0.2        
C2        C        0.03125        0.074075        0.403888        0        
C3        C        0.0        0.092592        0.403888        0        
C4        C        0.03125        0.037037        0.403888        0        
C_FG        C        0.0        0.12963        0.403888        0.2        
C2        C        0.03125        0.185185        0.403888        0        
C3        C        0.0        0.203703        0.403888        0        
C4        C        0.03125        0.148148        0.403888        0        
C_FG        C        0.0        0.24074099999999998        0.403888        0.2        
C2        C        0.03125        0.296297        0.403888        0        
C3        C        0.0        0.314815        0.403888        0        
C4        C        0.03125        0.259259        0.403888        0        
C_FG        C        0.0        0.351852        0.403888        0.2        
C2        C        0.03125        0.407408        0.403888        0        
C3        C        0.0        0.42592500000000005        0.403888        0        
C4        C        0.03125        0.37037        0.403888        0        
C_FG        C        0.0        0.46296300000000007        0.403888        0.2        
C2        C        0.03125        0.518519        0.403888        0        
C3        C        0.0        0.537037        0.403888        0        
C4        C        0.03125        0.481481        0.403888        0        
C_FG        C        0.0        0.574075        0.403888        0.2        
C2        C        0.03125        0.62963        0.403888        0        
C3        C        0.0        0.648148        0.403888        0        
C4        C        0.03125        0.592592        0.403888        0        
C1        C        0.0625        0.018519        0.403888        0        
C2        C        0.09375        0.074075        0.403888        0        
C3        C        0.0625        0.092592        0.403888        0        
C4        C        0.09375        0.037037        0.403888        0        
C1        C        0.0625        0.12963        0.403888        0        
C2        C        0.09375        0.185185        0.403888        0        
C3        C        0.0625        0.203703        0.403888        0        
C4        C        0.09375        0.148148        0.403888        0        
C1        C        0.0625        0.24074099999999998        0.403888        0        
C2        C        0.09375        0.296297        0.403888        0        
C3        C        0.0625        0.314815        0.403888        0        
C4        C        0.09375        0.259259        0.403888        0        
C1        C        0.0625        0.351852        0.403888        0        
C2        C        0.09375        0.407408        0.403888        0        
C3        C        0.0625        0.42592500000000005        0.403888        0        
C4        C        0.09375        0.37037        0.403888        0        
C1        C        0.0625        0.46296300000000007        0.403888        0        
C2        C        0.09375        0.518519        0.403888        0        
C3        C        0.0625        0.537037        0.403888        0        
C4        C        0.09375        0.481481        0.403888        0        
C1        C        0.0625        0.574075        0.403888        0        
C2        C        0.09375        0.62963        0.403888        0        
C3        C        0.0625        0.648148        0.403888        0        
C4        C        0.09375        0.592592        0.403888        0        
C_FG        C        0.125        0.018519        0.403888        0.2        
C2        C        0.15625        0.074075        0.403888        0        
C3        C        0.125        0.092592        0.403888        0        
C4        C        0.15625        0.037037        0.403888        0        
C_FG        C        0.125        0.12963        0.403888        0.2        
C2        C        0.15625        0.185185        0.403888        0        
C3        C        0.125        0.203703        0.403888        0        
C4        C        0.15625        0.148148        0.403888        0        
C_FG        C        0.125        0.24074099999999998        0.403888        0.2        
C2        C        0.15625        0.296297        0.403888        0        
C3        C        0.125        0.314815        0.403888        0        
C4        C        0.15625        0.259259        0.403888        0        
C_FG        C        0.125        0.351852        0.403888        0.2        
C2        C        0.15625        0.407408        0.403888        0        
C3        C        0.125        0.42592500000000005        0.403888        0        
C4        C        0.15625        0.37037        0.403888        0        
C_FG        C        0.125        0.46296300000000007        0.403888        0.2        
C2        C        0.15625        0.518519        0.403888        0        
C3        C        0.125        0.537037        0.403888        0        
C4        C        0.15625        0.481481        0.403888        0        
C_FG        C        0.125        0.574075        0.403888        0.2        
C2        C        0.15625        0.62963        0.403888        0        
C3        C        0.125        0.648148        0.403888        0        
C4        C        0.15625        0.592592        0.403888        0        
C1        C        0.1875        0.018519        0.403888        0        
C2        C        0.21875        0.074075        0.403888        0        
C3        C        0.1875        0.092592        0.403888        0        
C4        C        0.21875        0.037037        0.403888        0        
C1        C        0.1875        0.12963        0.403888        0        
C2        C        0.21875        0.185185        0.403888        0        
C3        C        0.1875        0.203703        0.403888        0        
C4        C        0.21875        0.148148        0.403888        0        
C1        C        0.1875        0.24074099999999998        0.403888        0        
C2        C        0.21875        0.296297        0.403888        0        
C3        C        0.1875        0.314815        0.403888        0        
C4        C        0.21875        0.259259        0.403888        0        
C1        C        0.1875        0.351852        0.403888        0        
C2        C        0.21875        0.407408        0.403888        0        
C3        C        0.1875        0.42592500000000005        0.403888        0        
C4        C        0.21875        0.37037        0.403888        0        
C1        C        0.1875        0.46296300000000007        0.403888        0        
C2        C        0.21875        0.518519        0.403888        0        
C3        C        0.1875        0.537037        0.403888        0        
C4        C        0.21875        0.481481        0.403888        0        
C1        C        0.1875        0.574075        0.403888        0        
C2        C        0.21875        0.62963        0.403888        0        
C3        C        0.1875        0.648148        0.403888        0        
C4        C        0.21875        0.592592        0.403888        0        
C_FG        C        0.25        0.018519        0.403888        0.2        
C2        C        0.28125        0.074075        0.403888        0        
C3        C        0.25        0.092592        0.403888        0        
C4        C        0.28125        0.037037        0.403888        0        
C_FG        C        0.25        0.12963        0.403888        0.2        
C2        C        0.28125        0.185185        0.403888        0        
C3        C        0.25        0.203703        0.403888        0        
C4        C        0.28125        0.148148        0.403888        0        
C_FG        C        0.25        0.24074099999999998        0.403888        0.2        
C2        C        0.28125        0.296297        0.403888        0        
C3        C        0.25        0.314815        0.403888        0        
C4        C        0.28125        0.259259        0.403888        0        
C_FG        C        0.25        0.351852        0.403888        0.2        
C2        C        0.28125        0.407408        0.403888        0        
C3        C        0.25        0.42592500000000005        0.403888        0        
C4        C        0.28125        0.37037        0.403888        0        
C_FG        C        0.25        0.46296300000000007        0.403888        0.2        
C2        C        0.28125        0.518519        0.403888        0        
C3        C        0.25        0.537037        0.403888        0        
C4        C        0.28125        0.481481        0.403888        0        
C_FG        C        0.25        0.574075        0.403888        0.2        
C2        C        0.28125        0.62963        0.403888        0        
C3        C        0.25        0.648148        0.403888        0        
C4        C        0.28125        0.592592        0.403888        0        
C1        C        0.3125        0.018519        0.403888        0        
C2        C        0.34375        0.074075        0.403888        0        
C3        C        0.3125        0.092592        0.403888        0        
C4        C        0.34375        0.037037        0.403888        0        
C1        C        0.3125        0.12963        0.403888        0        
C2        C        0.34375        0.185185        0.403888        0        
C3        C        0.3125        0.203703        0.403888        0        
C4        C        0.34375        0.148148        0.403888        0        
C1        C        0.3125        0.24074099999999998        0.403888        0        
C2        C        0.34375        0.296297        0.403888        0        
C3        C        0.3125        0.314815        0.403888        0        
C4        C        0.34375        0.259259        0.403888        0        
C1        C        0.3125        0.351852        0.403888        0        
C2        C        0.34375        0.407408        0.403888        0        
C3        C        0.3125        0.42592500000000005        0.403888        0        
C4        C        0.34375        0.37037        0.403888        0        
C1        C        0.3125        0.46296300000000007        0.403888        0        
C2        C        0.34375        0.518519        0.403888        0        
C3        C        0.3125        0.537037        0.403888        0        
C4        C        0.34375        0.481481        0.403888        0        
C1        C        0.3125        0.574075        0.403888        0        
C2        C        0.34375        0.62963        0.403888        0        
C3        C        0.3125        0.648148        0.403888        0        
C4        C        0.34375        0.592592        0.403888        0        
C_FG        C        0.375        0.018519        0.403888        0.2        
C2        C        0.40625        0.074075        0.403888        0        
C3        C        0.375        0.092592        0.403888        0        
C4        C        0.40625        0.037037        0.403888        0        
C_FG        C        0.375        0.12963        0.403888        0.2        
C2        C        0.40625        0.185185        0.403888        0        
C3        C        0.375        0.203703        0.403888        0        
C4        C        0.40625        0.148148        0.403888        0        
C_FG        C        0.375        0.24074099999999998        0.403888        0.2        
C2        C        0.40625        0.296297        0.403888        0        
C3        C        0.375        0.314815        0.403888        0        
C4        C        0.40625        0.259259        0.403888        0        
C_FG        C        0.375        0.351852        0.403888        0.2        
C2        C        0.40625        0.407408        0.403888        0        
C3        C        0.375        0.42592500000000005        0.403888        0        
C4        C        0.40625        0.37037        0.403888        0        
C_FG        C        0.375        0.46296300000000007        0.403888        0.2        
C2        C        0.40625        0.518519        0.403888        0        
C3        C        0.375        0.537037        0.403888        0        
C4        C        0.40625        0.481481        0.403888        0        
C_FG        C        0.375        0.574075        0.403888        0.2        
C2        C        0.40625        0.62963        0.403888        0        
C3        C        0.375        0.648148        0.403888        0        
C4        C        0.40625        0.592592        0.403888        0        
C1        C        0.4375        0.018519        0.403888        0        
C2        C        0.46875        0.074075        0.403888        0        
C3        C        0.4375        0.092592        0.403888        0        
C4        C        0.46875        0.037037        0.403888        0        
C1        C        0.4375        0.12963        0.403888        0        
C2        C        0.46875        0.185185        0.403888        0        
C3        C        0.4375        0.203703        0.403888        0        
C4        C        0.46875        0.148148        0.403888        0        
C1        C        0.4375        0.24074099999999998        0.403888        0        
C2        C        0.46875        0.296297        0.403888        0        
C3        C        0.4375        0.314815        0.403888        0        
C4        C        0.46875        0.259259        0.403888        0        
C1        C        0.4375        0.351852        0.403888        0        
C2        C        0.46875        0.407408        0.403888        0        
C3        C        0.4375        0.42592500000000005        0.403888        0        
C4        C        0.46875        0.37037        0.403888        0        
C1        C        0.4375        0.46296300000000007        0.403888        0        
C2        C        0.46875        0.518519        0.403888        0        
C3        C        0.4375        0.537037        0.403888        0        
C4        C        0.46875        0.481481        0.403888        0        
C1        C        0.4375        0.574075        0.403888        0        
C2        C        0.46875        0.62963        0.403888        0        
C3        C        0.4375        0.648148        0.403888        0        
C4        C        0.46875        0.592592        0.403888        0        
C_FG        C        0.5        0.018519        0.403888        0.2        
C2        C        0.53125        0.074075        0.403888        0        
C3        C        0.5        0.092592        0.403888        0        
C4        C        0.53125        0.037037        0.403888        0        
C_FG        C        0.5        0.12963        0.403888        0.2        
C2        C        0.53125        0.185185        0.403888        0        
C3        C        0.5        0.203703        0.403888        0        
C4        C        0.53125        0.148148        0.403888        0        
C_FG        C        0.5        0.24074099999999998        0.403888        0.2        
C2        C        0.53125        0.296297        0.403888        0        
C3        C        0.5        0.314815        0.403888        0        
C4        C        0.53125        0.259259        0.403888        0        
C_FG        C        0.5        0.351852        0.403888        0.2        
C2        C        0.53125        0.407408        0.403888        0        
C3        C        0.5        0.42592500000000005        0.403888        0        
C4        C        0.53125        0.37037        0.403888        0        
C_FG        C        0.5        0.46296300000000007        0.403888        0.2        
C2        C        0.53125        0.518519        0.403888        0        
C3        C        0.5        0.537037        0.403888        0        
C4        C        0.53125        0.481481        0.403888        0        
C_FG        C        0.5        0.574075        0.403888        0.2        
C2        C        0.53125        0.62963        0.403888        0        
C3        C        0.5        0.648148        0.403888        0        
C4        C        0.53125        0.592592        0.403888        0        
C1        C        0.5625        0.018519        0.403888        0        
C2        C        0.59375        0.074075        0.403888        0        
C3        C        0.5625        0.092592        0.403888        0        
C4        C        0.59375        0.037037        0.403888        0        
C1        C        0.5625        0.12963        0.403888        0        
C2        C        0.59375        0.185185        0.403888        0        
C3        C        0.5625        0.203703        0.403888        0        
C4        C        0.59375        0.148148        0.403888        0        
C1        C        0.5625        0.24074099999999998        0.403888        0        
C2        C        0.59375        0.296297        0.403888        0        
C3        C        0.5625        0.314815        0.403888        0        
C4        C        0.59375        0.259259        0.403888        0        
C1        C        0.5625        0.351852        0.403888        0        
C2        C        0.59375        0.407408        0.403888        0        
C3        C        0.5625        0.42592500000000005        0.403888        0        
C4        C        0.59375        0.37037        0.403888        0        
C1        C        0.5625        0.46296300000000007        0.403888        0        
C2        C        0.59375        0.518519        0.403888        0        
C3        C        0.5625        0.537037        0.403888        0        
C4        C        0.59375        0.481481        0.403888        0        
C1        C        0.5625        0.574075        0.403888        0        
C2        C        0.59375        0.62963        0.403888        0        
C3        C        0.5625        0.648148        0.403888        0        
C4        C        0.59375        0.592592        0.403888        0        
C_FG        C        0.625        0.018519        0.403888        0.2        
C2        C        0.65625        0.074075        0.403888        0        
C3        C        0.625        0.092592        0.403888        0        
C4        C        0.65625        0.037037        0.403888        0        
C_FG        C        0.625        0.12963        0.403888        0.2        
C2        C        0.65625        0.185185        0.403888        0        
C3        C        0.625        0.203703        0.403888        0        
C4        C        0.65625        0.148148        0.403888        0        
C_FG        C        0.625        0.24074099999999998        0.403888        0.2        
C2        C        0.65625        0.296297        0.403888        0        
C3        C        0.625        0.314815        0.403888        0        
C4        C        0.65625        0.259259        0.403888        0        
C_FG        C        0.625        0.351852        0.403888        0.2        
C2        C        0.65625        0.407408        0.403888        0        
C3        C        0.625        0.42592500000000005        0.403888        0        
C4        C        0.65625        0.37037        0.403888        0        
C_FG        C        0.625        0.46296300000000007        0.403888        0.2        
C2        C        0.65625        0.518519        0.403888        0        
C3        C        0.625        0.537037        0.403888        0        
C4        C        0.65625        0.481481        0.403888        0        
C_FG        C        0.625        0.574075        0.403888        0.2        
C2        C        0.65625        0.62963        0.403888        0        
C3        C        0.625        0.648148        0.403888        0        
C4        C        0.65625        0.592592        0.403888        0        
C1        C        0.6875        0.018519        0.403888        0        
C2        C        0.71875        0.074075        0.403888        0        
C3        C        0.6875        0.092592        0.403888        0        
C4        C        0.71875        0.037037        0.403888        0        
C1        C        0.6875        0.12963        0.403888        0        
C2        C        0.71875        0.185185        0.403888        0        
C3        C        0.6875        0.203703        0.403888        0        
C4        C        0.71875        0.148148        0.403888        0        
C1        C        0.6875        0.24074099999999998        0.403888        0        
C2        C        0.71875        0.296297        0.403888        0        
C3        C        0.6875        0.314815        0.403888        0        
C4        C        0.71875        0.259259        0.403888        0        
C1        C        0.6875        0.351852        0.403888        0        
C2        C        0.71875        0.407408        0.403888        0        
C3        C        0.6875        0.42592500000000005        0.403888        0        
C4        C        0.71875        0.37037        0.403888        0        
C1        C        0.6875        0.46296300000000007        0.403888        0        
C2        C        0.71875        0.518519        0.403888        0        
C3        C        0.6875        0.537037        0.403888        0        
C4        C        0.71875        0.481481        0.403888        0        
C1        C        0.6875        0.574075        0.403888        0        
C2        C        0.71875        0.62963        0.403888        0        
C3        C        0.6875        0.648148        0.403888        0        
C4        C        0.71875        0.592592        0.403888        0        
C_FG        C        0.75        0.018519        0.403888        0.2        
C2        C        0.78125        0.074075        0.403888        0        
C3        C        0.75        0.092592        0.403888        0        
C4        C        0.78125        0.037037        0.403888        0        
C_FG        C        0.75        0.12963        0.403888        0.2        
C2        C        0.78125        0.185185        0.403888        0        
C3        C        0.75        0.203703        0.403888        0        
C4        C        0.78125        0.148148        0.403888        0        
C_FG        C        0.75        0.24074099999999998        0.403888        0.2        
C2        C        0.78125        0.296297        0.403888        0        
C3        C        0.75        0.314815        0.403888        0        
C4        C        0.78125        0.259259        0.403888        0        
C_FG        C        0.75        0.351852        0.403888        0.2        
C2        C        0.78125        0.407408        0.403888        0        
C3        C        0.75        0.42592500000000005        0.403888        0        
C4        C        0.78125        0.37037        0.403888        0        
C_FG        C        0.75        0.46296300000000007        0.403888        0.2        
C2        C        0.78125        0.518519        0.403888        0        
C3        C        0.75        0.537037        0.403888        0        
C4        C        0.78125        0.481481        0.403888        0        
C_FG        C        0.75        0.574075        0.403888        0.2        
C2        C        0.78125        0.62963        0.403888        0        
C3        C        0.75        0.648148        0.403888        0        
C4        C        0.78125        0.592592        0.403888        0        
C1        C        0.8125        0.018519        0.403888        0        
C2        C        0.84375        0.074075        0.403888        0        
C3        C        0.8125        0.092592        0.403888        0        
C4        C        0.84375        0.037037        0.403888        0        
C1        C        0.8125        0.12963        0.403888        0        
C2        C        0.84375        0.185185        0.403888        0        
C3        C        0.8125        0.203703        0.403888        0        
C4        C        0.84375        0.148148        0.403888        0        
C1        C        0.8125        0.24074099999999998        0.403888        0        
C2        C        0.84375        0.296297        0.403888        0        
C3        C        0.8125        0.314815        0.403888        0        
C4        C        0.84375        0.259259        0.403888        0        
C1        C        0.8125        0.351852        0.403888        0        
C2        C        0.84375        0.407408        0.403888        0        
C3        C        0.8125        0.42592500000000005        0.403888        0        
C4        C        0.84375        0.37037        0.403888        0        
C1        C        0.8125        0.46296300000000007        0.403888        0        
C2        C        0.84375        0.518519        0.403888        0        
C3        C        0.8125        0.537037        0.403888        0        
C4        C        0.84375        0.481481        0.403888        0        
C1        C        0.8125        0.574075        0.403888        0        
C2        C        0.84375        0.62963        0.403888        0        
C3        C        0.8125        0.648148        0.403888        0        
C4        C        0.84375        0.592592        0.403888        0        
C_FG        C        0.875        0.018519        0.403888        0.2        
C2        C        0.9062500000000001        0.074075        0.403888        0        
C3        C        0.875        0.092592        0.403888        0        
C4        C        0.9062500000000001        0.037037        0.403888        0        
C_FG        C        0.875        0.12963        0.403888        0.2        
C2        C        0.9062500000000001        0.185185        0.403888        0        
C3        C        0.875        0.203703        0.403888        0        
C4        C        0.9062500000000001        0.148148        0.403888        0        
C_FG        C        0.875        0.24074099999999998        0.403888        0.2        
C2        C        0.9062500000000001        0.296297        0.403888        0        
C3        C        0.875        0.314815        0.403888        0        
C4        C        0.9062500000000001        0.259259        0.403888        0        
C_FG        C        0.875        0.351852        0.403888        0.2        
C2        C        0.9062500000000001        0.407408        0.403888        0        
C3        C        0.875        0.42592500000000005        0.403888        0        
C4        C        0.9062500000000001        0.37037        0.403888        0        
C_FG        C        0.875        0.46296300000000007        0.403888        0.2        
C2        C        0.9062500000000001        0.518519        0.403888        0        
C3        C        0.875        0.537037        0.403888        0        
C4        C        0.9062500000000001        0.481481        0.403888        0        
C_FG        C        0.875        0.574075        0.403888        0.2        
C2        C        0.9062500000000001        0.62963        0.403888        0        
C3        C        0.875        0.648148        0.403888        0        
C4        C        0.9062500000000001        0.592592        0.403888        0        
C1        C        0.9375        0.018519        0.403888        0        
C2        C        0.9687500000000001        0.074075        0.403888        0        
C3        C        0.9375        0.092592        0.403888        0        
C4        C        0.9687500000000001        0.037037        0.403888        0        
C1        C        0.9375        0.12963        0.403888        0        
C2        C        0.9687500000000001        0.185185        0.403888        0        
C3        C        0.9375        0.203703        0.403888        0        
C4        C        0.9687500000000001        0.148148        0.403888        0        
C1        C        0.9375        0.24074099999999998        0.403888        0        
C2        C        0.9687500000000001        0.296297        0.403888        0        
C3        C        0.9375        0.314815        0.403888        0        
C4        C        0.9687500000000001        0.259259        0.403888        0        
C1        C        0.9375        0.351852        0.403888        0        
C2        C        0.9687500000000001        0.407408        0.403888        0        
C3        C        0.9375        0.42592500000000005        0.403888        0        
C4        C        0.9687500000000001        0.37037        0.403888        0        
C1        C        0.9375        0.46296300000000007        0.403888        0        
C2        C        0.9687500000000001        0.518519        0.403888        0        
C3        C        0.9375        0.537037        0.403888        0        
C4        C        0.9687500000000001        0.481481        0.403888        0        
C1        C        0.9375        0.574075        0.403888        0        
C2        C        0.9687500000000001        0.62963        0.403888        0        
C3        C        0.9375        0.648148        0.403888        0        
C4        C        0.9687500000000001        0.592592        0.403888        0        
C_FG        C        0.0        0.685186        0.403888        0.2        
C1        C        0.0625        0.685186        0.403888        0        
C_FG        C        0.125        0.685186        0.403888        0.2        
C1        C        0.1875        0.685186        0.403888        0        
C_FG        C        0.25        0.685186        0.403888        0.2        
C1        C        0.3125        0.685186        0.403888        0        
C_FG        C        0.375        0.685186        0.403888        0.2        
C1        C        0.4375        0.685186        0.403888        0        
C_FG        C        0.5        0.685186        0.403888        0.2        
C1        C        0.5625        0.685186        0.403888        0        
C_FG        C        0.625        0.685186        0.403888        0.2        
C1        C        0.6875        0.685186        0.403888        0        
C_FG        C        0.75        0.685186        0.403888        0.2        
C1        C        0.8125        0.685186        0.403888        0        
C_FG        C        0.875        0.685186        0.403888        0.2        
C1        C        0.9375        0.685186        0.403888        0        
C2        C        0.03125        0.740741        0.403888        0        
C2        C        0.09375        0.740741        0.403888        0        
C2        C        0.15625        0.740741        0.403888        0        
C2        C        0.21875        0.740741        0.403888        0        
C2        C        0.28125        0.740741        0.403888        0        
C2        C        0.34375        0.740741        0.403888        0        
C2        C        0.40625        0.740741        0.403888        0        
C2        C        0.46875        0.740741        0.403888        0        
C2        C        0.53125        0.740741        0.403888        0        
C2        C        0.59375        0.740741        0.403888        0        
C2        C        0.65625        0.740741        0.403888        0        
C2        C        0.71875        0.740741        0.403888        0        
C2        C        0.78125        0.740741        0.403888        0        
C2        C        0.84375        0.740741        0.403888        0        
C2        C        0.9062500000000001        0.740741        0.403888        0        
C2        C        0.9687500000000001        0.740741        0.403888        0        
C3        C        0.0        0.759259        0.403888        0        
C3        C        0.0625        0.759259        0.403888        0        
C3        C        0.125        0.759259        0.403888        0        
C3        C        0.1875        0.759259        0.403888        0        
C3        C        0.25        0.759259        0.403888        0        
C3        C        0.3125        0.759259        0.403888        0        
C3        C        0.375        0.759259        0.403888        0        
C3        C        0.4375        0.759259        0.403888        0        
C3        C        0.5        0.759259        0.403888        0        
C3        C        0.5625        0.759259        0.403888        0        
C3        C        0.625        0.759259        0.403888        0        
C3        C        0.6875        0.759259        0.403888        0        
C3        C        0.75        0.759259        0.403888        0        
C3        C        0.8125        0.759259        0.403888        0        
C3        C        0.875        0.759259        0.403888        0        
C3        C        0.9375        0.759259        0.403888        0        
C4        C        0.03125        0.703703        0.403888        0        
C4        C        0.09375        0.703703        0.403888        0        
C4        C        0.15625        0.703703        0.403888        0        
C4        C        0.21875        0.703703        0.403888        0        
C4        C        0.28125        0.703703        0.403888        0        
C4        C        0.34375        0.703703        0.403888        0        
C4        C        0.40625        0.703703        0.403888        0        
C4        C        0.46875        0.703703        0.403888        0        
C4        C        0.53125        0.703703        0.403888        0        
C4        C        0.59375        0.703703        0.403888        0        
C4        C        0.65625        0.703703        0.403888        0        
C4        C        0.71875        0.703703        0.403888        0        
C4        C        0.78125        0.703703        0.403888        0        
C4        C        0.84375        0.703703        0.403888        0        
C4        C        0.9062500000000001        0.703703        0.403888        0        
C4        C        0.9687500000000001        0.703703        0.403888        0        
C_FG        C        0.0        0.796297        0.403888        0.2        
C1        C        0.0625        0.796297        0.403888        0        
C_FG        C        0.125        0.796297        0.403888        0.2        
C1        C        0.1875        0.796297        0.403888        0        
C_FG        C        0.25        0.796297        0.403888        0.2        
C1        C        0.3125        0.796297        0.403888        0        
C_FG        C        0.375        0.796297        0.403888        0.2        
C1        C        0.4375        0.796297        0.403888        0        
C_FG        C        0.5        0.796297        0.403888        0.2        
C1        C        0.5625        0.796297        0.403888        0        
C_FG        C        0.625        0.796297        0.403888        0.2        
C1        C        0.6875        0.796297        0.403888        0        
C_FG        C        0.75        0.796297        0.403888        0.2        
C1        C        0.8125        0.796297        0.403888        0        
C_FG        C        0.875        0.796297        0.403888        0.2        
C1        C        0.9375        0.796297        0.403888        0        
C2        C        0.03125        0.851852        0.403888        0        
C2        C        0.09375        0.851852        0.403888        0        
C2        C        0.15625        0.851852        0.403888        0        
C2        C        0.21875        0.851852        0.403888        0        
C2        C        0.28125        0.851852        0.403888        0        
C2        C        0.34375        0.851852        0.403888        0        
C2        C        0.40625        0.851852        0.403888        0        
C2        C        0.46875        0.851852        0.403888        0        
C2        C        0.53125        0.851852        0.403888        0        
C2        C        0.59375        0.851852        0.403888        0        
C2        C        0.65625        0.851852        0.403888        0        
C2        C        0.71875        0.851852        0.403888        0        
C2        C        0.78125        0.851852        0.403888        0        
C2        C        0.84375        0.851852        0.403888        0        
C2        C        0.9062500000000001        0.851852        0.403888        0        
C2        C        0.9687500000000001        0.851852        0.403888        0        
C3        C        0.0        0.87037        0.403888        0        
C3        C        0.0625        0.87037        0.403888        0        
C3        C        0.125        0.87037        0.403888        0        
C3        C        0.1875        0.87037        0.403888        0        
C3        C        0.25        0.87037        0.403888        0        
C3        C        0.3125        0.87037        0.403888        0        
C3        C        0.375        0.87037        0.403888        0        
C3        C        0.4375        0.87037        0.403888        0        
C3        C        0.5        0.87037        0.403888        0        
C3        C        0.5625        0.87037        0.403888        0        
C3        C        0.625        0.87037        0.403888        0        
C3        C        0.6875        0.87037        0.403888        0        
C3        C        0.75        0.87037        0.403888        0        
C3        C        0.8125        0.87037        0.403888        0        
C3        C        0.875        0.87037        0.403888        0        
C3        C        0.9375        0.87037        0.403888        0        
C4        C        0.03125        0.814814        0.403888        0        
C4        C        0.09375        0.814814        0.403888        0        
C4        C        0.15625        0.814814        0.403888        0        
C4        C        0.21875        0.814814        0.403888        0        
C4        C        0.28125        0.814814        0.403888        0        
C4        C        0.34375        0.814814        0.403888        0        
C4        C        0.40625        0.814814        0.403888        0        
C4        C        0.46875        0.814814        0.403888        0        
C4        C        0.53125        0.814814        0.403888        0        
C4        C        0.59375        0.814814        0.403888        0        
C4        C        0.65625        0.814814        0.403888        0        
C4        C        0.71875        0.814814        0.403888        0        
C4        C        0.78125        0.814814        0.403888        0        
C4        C        0.84375        0.814814        0.403888        0        
C4        C        0.9062500000000001        0.814814        0.403888        0        
C4        C        0.9687500000000001        0.814814        0.403888        0        
C_FG        C        0.0        0.907408        0.403888        0.2        
C1        C        0.0625        0.907408        0.403888        0        
C_FG        C        0.125        0.907408        0.403888        0.2        
C1        C        0.1875        0.907408        0.403888        0        
C_FG        C        0.25        0.907408        0.403888        0.2        
C1        C        0.3125        0.907408        0.403888        0        
C_FG        C        0.375        0.907408        0.403888        0.2        
C1        C        0.4375        0.907408        0.403888        0        
C_FG        C        0.5        0.907408        0.403888        0.2        
C1        C        0.5625        0.907408        0.403888        0        
C_FG        C        0.625        0.907408        0.403888        0.2        
C1        C        0.6875        0.907408        0.403888        0        
C_FG        C        0.75        0.907408        0.403888        0.2        
C1        C        0.8125        0.907408        0.403888        0        
C_FG        C        0.875        0.907408        0.403888        0.2        
C1        C        0.9375        0.907408        0.403888        0        
C2        C        0.03125        0.962963        0.403888        0        
C2        C        0.09375        0.962963        0.403888        0        
C2        C        0.15625        0.962963        0.403888        0        
C2        C        0.21875        0.962963        0.403888        0        
C2        C        0.28125        0.962963        0.403888        0        
C2        C        0.34375        0.962963        0.403888        0        
C2        C        0.40625        0.962963        0.403888        0        
C2        C        0.46875        0.962963        0.403888        0        
C2        C        0.53125        0.962963        0.403888        0        
C2        C        0.59375        0.962963        0.403888        0        
C2        C        0.65625        0.962963        0.403888        0        
C2        C        0.71875        0.962963        0.403888        0        
C2        C        0.78125        0.962963        0.403888        0        
C2        C        0.84375        0.962963        0.403888        0        
C2        C        0.9062500000000001        0.962963        0.403888        0        
C2        C        0.9687500000000001        0.962963        0.403888        0        
C3        C        0.0        0.9814809999999999        0.403888        0        
C3        C        0.0625        0.9814809999999999        0.403888        0        
C3        C        0.125        0.9814809999999999        0.403888        0        
C3        C        0.1875        0.9814809999999999        0.403888        0        
C3        C        0.25        0.9814809999999999        0.403888        0        
C3        C        0.3125        0.9814809999999999        0.403888        0        
C3        C        0.375        0.9814809999999999        0.403888        0        
C3        C        0.4375        0.9814809999999999        0.403888        0        
C3        C        0.5        0.9814809999999999        0.403888        0        
C3        C        0.5625        0.9814809999999999        0.403888        0        
C3        C        0.625        0.9814809999999999        0.403888        0        
C3        C        0.6875        0.9814809999999999        0.403888        0        
C3        C        0.75        0.9814809999999999        0.403888        0        
C3        C        0.8125        0.9814809999999999        0.403888        0        
C3        C        0.875        0.9814809999999999        0.403888        0        
C3        C        0.9375        0.9814809999999999        0.403888        0        
C4        C        0.03125        0.925925        0.403888        0        
C4        C        0.09375        0.925925        0.403888        0        
C4        C        0.15625        0.925925        0.403888        0        
C4        C        0.21875        0.925925        0.403888        0        
C4        C        0.28125        0.925925        0.403888        0        
C4        C        0.34375        0.925925        0.403888        0        
C4        C        0.40625        0.925925        0.403888        0        
C4        C        0.46875        0.925925        0.403888        0        
C4        C        0.53125        0.925925        0.403888        0        
C4        C        0.59375        0.925925        0.403888        0        
C4        C        0.65625        0.925925        0.403888        0        
C4        C        0.71875        0.925925        0.403888        0        
C4        C        0.78125        0.925925        0.403888        0        
C4        C        0.84375        0.925925        0.403888        0        
C4        C        0.9062500000000001        0.925925        0.403888        0        
C4        C        0.9687500000000001        0.925925        0.403888        0        
C_FG        C        0.0        0.018519        0.596113        0.2        
C2        C        0.03125        0.074075        0.596113        0        
C3        C        0.0        0.092592        0.596113        0        
C4        C        0.03125        0.037037        0.596113        0        
C_FG        C        0.0        0.12963        0.596113        0.2        
C2        C        0.03125        0.185185        0.596113        0        
C3        C        0.0        0.203703        0.596113        0        
C4        C        0.03125        0.148148        0.596113        0        
C_FG        C        0.0        0.24074099999999998        0.596113        0.2        
C2        C        0.03125        0.296297        0.596113        0        
C3        C        0.0        0.314815        0.596113        0        
C4        C        0.03125        0.259259        0.596113        0        
C_FG        C        0.0        0.351852        0.596113        0.2        
C2        C        0.03125        0.407408        0.596113        0        
C3        C        0.0        0.42592500000000005        0.596113        0        
C4        C        0.03125        0.37037        0.596113        0        
C_FG        C        0.0        0.46296300000000007        0.596113        0.2        
C2        C        0.03125        0.518519        0.596113        0        
C3        C        0.0        0.537037        0.596113        0        
C4        C        0.03125        0.481481        0.596113        0        
C_FG        C        0.0        0.574075        0.596113        0.2        
C2        C        0.03125        0.62963        0.596113        0        
C3        C        0.0        0.648148        0.596113        0        
C4        C        0.03125        0.592592        0.596113        0        
C1        C        0.0625        0.018519        0.596113        0        
C2        C        0.09375        0.074075        0.596113        0        
C3        C        0.0625        0.092592        0.596113        0        
C4        C        0.09375        0.037037        0.596113        0        
C1        C        0.0625        0.12963        0.596113        0        
C2        C        0.09375        0.185185        0.596113        0        
C3        C        0.0625        0.203703        0.596113        0        
C4        C        0.09375        0.148148        0.596113        0        
C1        C        0.0625        0.24074099999999998        0.596113        0        
C2        C        0.09375        0.296297        0.596113        0        
C3        C        0.0625        0.314815        0.596113        0        
C4        C        0.09375        0.259259        0.596113        0        
C1        C        0.0625        0.351852        0.596113        0        
C2        C        0.09375        0.407408        0.596113        0        
C3        C        0.0625        0.42592500000000005        0.596113        0        
C4        C        0.09375        0.37037        0.596113        0        
C1        C        0.0625        0.46296300000000007        0.596113        0        
C2        C        0.09375        0.518519        0.596113        0        
C3        C        0.0625        0.537037        0.596113        0        
C4        C        0.09375        0.481481        0.596113        0        
C1        C        0.0625        0.574075        0.596113        0        
C2        C        0.09375        0.62963        0.596113        0        
C3        C        0.0625        0.648148        0.596113        0        
C4        C        0.09375        0.592592        0.596113        0        
C_FG        C        0.125        0.018519        0.596113        0.2        
C2        C        0.15625        0.074075        0.596113        0        
C3        C        0.125        0.092592        0.596113        0        
C4        C        0.15625        0.037037        0.596113        0        
C_FG        C        0.125        0.12963        0.596113        0.2        
C2        C        0.15625        0.185185        0.596113        0        
C3        C        0.125        0.203703        0.596113        0        
C4        C        0.15625        0.148148        0.596113        0        
C_FG        C        0.125        0.24074099999999998        0.596113        0.2        
C2        C        0.15625        0.296297        0.596113        0        
C3        C        0.125        0.314815        0.596113        0        
C4        C        0.15625        0.259259        0.596113        0        
C_FG        C        0.125        0.351852        0.596113        0.2        
C2        C        0.15625        0.407408        0.596113        0        
C3        C        0.125        0.42592500000000005        0.596113        0        
C4        C        0.15625        0.37037        0.596113        0        
C_FG        C        0.125        0.46296300000000007        0.596113        0.2        
C2        C        0.15625        0.518519        0.596113        0        
C3        C        0.125        0.537037        0.596113        0        
C4        C        0.15625        0.481481        0.596113        0        
C_FG        C        0.125        0.574075        0.596113        0.2        
C2        C        0.15625        0.62963        0.596113        0        
C3        C        0.125        0.648148        0.596113        0        
C4        C        0.15625        0.592592        0.596113        0        
C1        C        0.1875        0.018519        0.596113        0        
C2        C        0.21875        0.074075        0.596113        0        
C3        C        0.1875        0.092592        0.596113        0        
C4        C        0.21875        0.037037        0.596113        0        
C1        C        0.1875        0.12963        0.596113        0        
C2        C        0.21875        0.185185        0.596113        0        
C3        C        0.1875        0.203703        0.596113        0        
C4        C        0.21875        0.148148        0.596113        0        
C1        C        0.1875        0.24074099999999998        0.596113        0        
C2        C        0.21875        0.296297        0.596113        0        
C3        C        0.1875        0.314815        0.596113        0        
C4        C        0.21875        0.259259        0.596113        0        
C1        C        0.1875        0.351852        0.596113        0        
C2        C        0.21875        0.407408        0.596113        0        
C3        C        0.1875        0.42592500000000005        0.596113        0        
C4        C        0.21875        0.37037        0.596113        0        
C1        C        0.1875        0.46296300000000007        0.596113        0        
C2        C        0.21875        0.518519        0.596113        0        
C3        C        0.1875        0.537037        0.596113        0        
C4        C        0.21875        0.481481        0.596113        0        
C1        C        0.1875        0.574075        0.596113        0        
C2        C        0.21875        0.62963        0.596113        0        
C3        C        0.1875        0.648148        0.596113        0        
C4        C        0.21875        0.592592        0.596113        0        
C_FG        C        0.25        0.018519        0.596113        0.2        
C2        C        0.28125        0.074075        0.596113        0        
C3        C        0.25        0.092592        0.596113        0        
C4        C        0.28125        0.037037        0.596113        0        
C_FG        C        0.25        0.12963        0.596113        0.2        
C2        C        0.28125        0.185185        0.596113        0        
C3        C        0.25        0.203703        0.596113        0        
C4        C        0.28125        0.148148        0.596113        0        
C_FG        C        0.25        0.24074099999999998        0.596113        0.2        
C2        C        0.28125        0.296297        0.596113        0        
C3        C        0.25        0.314815        0.596113        0        
C4        C        0.28125        0.259259        0.596113        0        
C_FG        C        0.25        0.351852        0.596113        0.2        
C2        C        0.28125        0.407408        0.596113        0        
C3        C        0.25        0.42592500000000005        0.596113        0        
C4        C        0.28125        0.37037        0.596113        0        
C_FG        C        0.25        0.46296300000000007        0.596113        0.2        
C2        C        0.28125        0.518519        0.596113        0        
C3        C        0.25        0.537037        0.596113        0        
C4        C        0.28125        0.481481        0.596113        0        
C_FG        C        0.25        0.574075        0.596113        0.2        
C2        C        0.28125        0.62963        0.596113        0        
C3        C        0.25        0.648148        0.596113        0        
C4        C        0.28125        0.592592        0.596113        0        
C1        C        0.3125        0.018519        0.596113        0        
C2        C        0.34375        0.074075        0.596113        0        
C3        C        0.3125        0.092592        0.596113        0        
C4        C        0.34375        0.037037        0.596113        0        
C1        C        0.3125        0.12963        0.596113        0        
C2        C        0.34375        0.185185        0.596113        0        
C3        C        0.3125        0.203703        0.596113        0        
C4        C        0.34375        0.148148        0.596113        0        
C1        C        0.3125        0.24074099999999998        0.596113        0        
C2        C        0.34375        0.296297        0.596113        0        
C3        C        0.3125        0.314815        0.596113        0        
C4        C        0.34375        0.259259        0.596113        0        
C1        C        0.3125        0.351852        0.596113        0        
C2        C        0.34375        0.407408        0.596113        0        
C3        C        0.3125        0.42592500000000005        0.596113        0        
C4        C        0.34375        0.37037        0.596113        0        
C1        C        0.3125        0.46296300000000007        0.596113        0        
C2        C        0.34375        0.518519        0.596113        0        
C3        C        0.3125        0.537037        0.596113        0        
C4        C        0.34375        0.481481        0.596113        0        
C1        C        0.3125        0.574075        0.596113        0        
C2        C        0.34375        0.62963        0.596113        0        
C3        C        0.3125        0.648148        0.596113        0        
C4        C        0.34375        0.592592        0.596113        0        
C_FG        C        0.375        0.018519        0.596113        0.2        
C2        C        0.40625        0.074075        0.596113        0        
C3        C        0.375        0.092592        0.596113        0        
C4        C        0.40625        0.037037        0.596113        0        
C_FG        C        0.375        0.12963        0.596113        0.2        
C2        C        0.40625        0.185185        0.596113        0        
C3        C        0.375        0.203703        0.596113        0        
C4        C        0.40625        0.148148        0.596113        0        
C_FG        C        0.375        0.24074099999999998        0.596113        0.2        
C2        C        0.40625        0.296297        0.596113        0        
C3        C        0.375        0.314815        0.596113        0        
C4        C        0.40625        0.259259        0.596113        0        
C_FG        C        0.375        0.351852        0.596113        0.2        
C2        C        0.40625        0.407408        0.596113        0        
C3        C        0.375        0.42592500000000005        0.596113        0        
C4        C        0.40625        0.37037        0.596113        0        
C_FG        C        0.375        0.46296300000000007        0.596113        0.2        
C2        C        0.40625        0.518519        0.596113        0        
C3        C        0.375        0.537037        0.596113        0        
C4        C        0.40625        0.481481        0.596113        0        
C_FG        C        0.375        0.574075        0.596113        0.2        
C2        C        0.40625        0.62963        0.596113        0        
C3        C        0.375        0.648148        0.596113        0        
C4        C        0.40625        0.592592        0.596113        0        
C1        C        0.4375        0.018519        0.596113        0        
C2        C        0.46875        0.074075        0.596113        0        
C3        C        0.4375        0.092592        0.596113        0        
C4        C        0.46875        0.037037        0.596113        0        
C1        C        0.4375        0.12963        0.596113        0        
C2        C        0.46875        0.185185        0.596113        0        
C3        C        0.4375        0.203703        0.596113        0        
C4        C        0.46875        0.148148        0.596113        0        
C1        C        0.4375        0.24074099999999998        0.596113        0        
C2        C        0.46875        0.296297        0.596113        0        
C3        C        0.4375        0.314815        0.596113        0        
C4        C        0.46875        0.259259        0.596113        0        
C1        C        0.4375        0.351852        0.596113        0        
C2        C        0.46875        0.407408        0.596113        0        
C3        C        0.4375        0.42592500000000005        0.596113        0        
C4        C        0.46875        0.37037        0.596113        0        
C1        C        0.4375        0.46296300000000007        0.596113        0        
C2        C        0.46875        0.518519        0.596113        0        
C3        C        0.4375        0.537037        0.596113        0        
C4        C        0.46875        0.481481        0.596113        0        
C1        C        0.4375        0.574075        0.596113        0        
C2        C        0.46875        0.62963        0.596113        0        
C3        C        0.4375        0.648148        0.596113        0        
C4        C        0.46875        0.592592        0.596113        0        
C_FG        C        0.5        0.018519        0.596113        0.2        
C2        C        0.53125        0.074075        0.596113        0        
C3        C        0.5        0.092592        0.596113        0        
C4        C        0.53125        0.037037        0.596113        0        
C_FG        C        0.5        0.12963        0.596113        0.2        
C2        C        0.53125        0.185185        0.596113        0        
C3        C        0.5        0.203703        0.596113        0        
C4        C        0.53125        0.148148        0.596113        0        
C_FG        C        0.5        0.24074099999999998        0.596113        0.2        
C2        C        0.53125        0.296297        0.596113        0        
C3        C        0.5        0.314815        0.596113        0        
C4        C        0.53125        0.259259        0.596113        0        
C_FG        C        0.5        0.351852        0.596113        0.2        
C2        C        0.53125        0.407408        0.596113        0        
C3        C        0.5        0.42592500000000005        0.596113        0        
C4        C        0.53125        0.37037        0.596113        0        
C_FG        C        0.5        0.46296300000000007        0.596113        0.2        
C2        C        0.53125        0.518519        0.596113        0        
C3        C        0.5        0.537037        0.596113        0        
C4        C        0.53125        0.481481        0.596113        0        
C_FG        C        0.5        0.574075        0.596113        0.2        
C2        C        0.53125        0.62963        0.596113        0        
C3        C        0.5        0.648148        0.596113        0        
C4        C        0.53125        0.592592        0.596113        0        
C1        C        0.5625        0.018519        0.596113        0        
C2        C        0.59375        0.074075        0.596113        0        
C3        C        0.5625        0.092592        0.596113        0        
C4        C        0.59375        0.037037        0.596113        0        
C1        C        0.5625        0.12963        0.596113        0        
C2        C        0.59375        0.185185        0.596113        0        
C3        C        0.5625        0.203703        0.596113        0        
C4        C        0.59375        0.148148        0.596113        0        
C1        C        0.5625        0.24074099999999998        0.596113        0        
C2        C        0.59375        0.296297        0.596113        0        
C3        C        0.5625        0.314815        0.596113        0        
C4        C        0.59375        0.259259        0.596113        0        
C1        C        0.5625        0.351852        0.596113        0        
C2        C        0.59375        0.407408        0.596113        0        
C3        C        0.5625        0.42592500000000005        0.596113        0        
C4        C        0.59375        0.37037        0.596113        0        
C1        C        0.5625        0.46296300000000007        0.596113        0        
C2        C        0.59375        0.518519        0.596113        0        
C3        C        0.5625        0.537037        0.596113        0        
C4        C        0.59375        0.481481        0.596113        0        
C1        C        0.5625        0.574075        0.596113        0        
C2        C        0.59375        0.62963        0.596113        0        
C3        C        0.5625        0.648148        0.596113        0        
C4        C        0.59375        0.592592        0.596113        0        
C_FG        C        0.625        0.018519        0.596113        0.2        
C2        C        0.65625        0.074075        0.596113        0        
C3        C        0.625        0.092592        0.596113        0        
C4        C        0.65625        0.037037        0.596113        0        
C_FG        C        0.625        0.12963        0.596113        0.2        
C2        C        0.65625        0.185185        0.596113        0        
C3        C        0.625        0.203703        0.596113        0        
C4        C        0.65625        0.148148        0.596113        0        
C_FG        C        0.625        0.24074099999999998        0.596113        0.2        
C2        C        0.65625        0.296297        0.596113        0        
C3        C        0.625        0.314815        0.596113        0        
C4        C        0.65625        0.259259        0.596113        0        
C_FG        C        0.625        0.351852        0.596113        0.2        
C2        C        0.65625        0.407408        0.596113        0        
C3        C        0.625        0.42592500000000005        0.596113        0        
C4        C        0.65625        0.37037        0.596113        0        
C_FG        C        0.625        0.46296300000000007        0.596113        0.2        
C2        C        0.65625        0.518519        0.596113        0        
C3        C        0.625        0.537037        0.596113        0        
C4        C        0.65625        0.481481        0.596113        0        
C_FG        C        0.625        0.574075        0.596113        0.2        
C2        C        0.65625        0.62963        0.596113        0        
C3        C        0.625        0.648148        0.596113        0        
C4        C        0.65625        0.592592        0.596113        0        
C1        C        0.6875        0.018519        0.596113        0        
C2        C        0.71875        0.074075        0.596113        0        
C3        C        0.6875        0.092592        0.596113        0        
C4        C        0.71875        0.037037        0.596113        0        
C1        C        0.6875        0.12963        0.596113        0        
C2        C        0.71875        0.185185        0.596113        0        
C3        C        0.6875        0.203703        0.596113        0        
C4        C        0.71875        0.148148        0.596113        0        
C1        C        0.6875        0.24074099999999998        0.596113        0        
C2        C        0.71875        0.296297        0.596113        0        
C3        C        0.6875        0.314815        0.596113        0        
C4        C        0.71875        0.259259        0.596113        0        
C1        C        0.6875        0.351852        0.596113        0        
C2        C        0.71875        0.407408        0.596113        0        
C3        C        0.6875        0.42592500000000005        0.596113        0        
C4        C        0.71875        0.37037        0.596113        0        
C1        C        0.6875        0.46296300000000007        0.596113        0        
C2        C        0.71875        0.518519        0.596113        0        
C3        C        0.6875        0.537037        0.596113        0        
C4        C        0.71875        0.481481        0.596113        0        
C1        C        0.6875        0.574075        0.596113        0        
C2        C        0.71875        0.62963        0.596113        0        
C3        C        0.6875        0.648148        0.596113        0        
C4        C        0.71875        0.592592        0.596113        0        
C_FG        C        0.75        0.018519        0.596113        0.2        
C2        C        0.78125        0.074075        0.596113        0        
C3        C        0.75        0.092592        0.596113        0        
C4        C        0.78125        0.037037        0.596113        0        
C_FG        C        0.75        0.12963        0.596113        0.2        
C2        C        0.78125        0.185185        0.596113        0        
C3        C        0.75        0.203703        0.596113        0        
C4        C        0.78125        0.148148        0.596113        0        
C_FG        C        0.75        0.24074099999999998        0.596113        0.2        
C2        C        0.78125        0.296297        0.596113        0        
C3        C        0.75        0.314815        0.596113        0        
C4        C        0.78125        0.259259        0.596113        0        
C_FG        C        0.75        0.351852        0.596113        0.2        
C2        C        0.78125        0.407408        0.596113        0        
C3        C        0.75        0.42592500000000005        0.596113        0        
C4        C        0.78125        0.37037        0.596113        0        
C_FG        C        0.75        0.46296300000000007        0.596113        0.2        
C2        C        0.78125        0.518519        0.596113        0        
C3        C        0.75        0.537037        0.596113        0        
C4        C        0.78125        0.481481        0.596113        0        
C_FG        C        0.75        0.574075        0.596113        0.2        
C2        C        0.78125        0.62963        0.596113        0        
C3        C        0.75        0.648148        0.596113        0        
C4        C        0.78125        0.592592        0.596113        0        
C1        C        0.8125        0.018519        0.596113        0        
C2        C        0.84375        0.074075        0.596113        0        
C3        C        0.8125        0.092592        0.596113        0        
C4        C        0.84375        0.037037        0.596113        0        
C1        C        0.8125        0.12963        0.596113        0        
C2        C        0.84375        0.185185        0.596113        0        
C3        C        0.8125        0.203703        0.596113        0        
C4        C        0.84375        0.148148        0.596113        0        
C1        C        0.8125        0.24074099999999998        0.596113        0        
C2        C        0.84375        0.296297        0.596113        0        
C3        C        0.8125        0.314815        0.596113        0        
C4        C        0.84375        0.259259        0.596113        0        
C1        C        0.8125        0.351852        0.596113        0        
C2        C        0.84375        0.407408        0.596113        0        
C3        C        0.8125        0.42592500000000005        0.596113        0        
C4        C        0.84375        0.37037        0.596113        0        
C1        C        0.8125        0.46296300000000007        0.596113        0        
C2        C        0.84375        0.518519        0.596113        0        
C3        C        0.8125        0.537037        0.596113        0        
C4        C        0.84375        0.481481        0.596113        0        
C1        C        0.8125        0.574075        0.596113        0        
C2        C        0.84375        0.62963        0.596113        0        
C3        C        0.8125        0.648148        0.596113        0        
C4        C        0.84375        0.592592        0.596113        0        
C_FG        C        0.875        0.018519        0.596113        0.2        
C2        C        0.9062500000000001        0.074075        0.596113        0        
C3        C        0.875        0.092592        0.596113        0        
C4        C        0.9062500000000001        0.037037        0.596113        0        
C_FG        C        0.875        0.12963        0.596113        0.2        
C2        C        0.9062500000000001        0.185185        0.596113        0        
C3        C        0.875        0.203703        0.596113        0        
C4        C        0.9062500000000001        0.148148        0.596113        0        
C_FG        C        0.875        0.24074099999999998        0.596113        0.2        
C2        C        0.9062500000000001        0.296297        0.596113        0        
C3        C        0.875        0.314815        0.596113        0        
C4        C        0.9062500000000001        0.259259        0.596113        0        
C_FG        C        0.875        0.351852        0.596113        0.2        
C2        C        0.9062500000000001        0.407408        0.596113        0        
C3        C        0.875        0.42592500000000005        0.596113        0        
C4        C        0.9062500000000001        0.37037        0.596113        0        
C_FG        C        0.875        0.46296300000000007        0.596113        0.2        
C2        C        0.9062500000000001        0.518519        0.596113        0        
C3        C        0.875        0.537037        0.596113        0        
C4        C        0.9062500000000001        0.481481        0.596113        0        
C_FG        C        0.875        0.574075        0.596113        0.2        
C2        C        0.9062500000000001        0.62963        0.596113        0        
C3        C        0.875        0.648148        0.596113        0        
C4        C        0.9062500000000001        0.592592        0.596113        0        
C1        C        0.9375        0.018519        0.596113        0        
C2        C        0.9687500000000001        0.074075        0.596113        0        
C3        C        0.9375        0.092592        0.596113        0        
C4        C        0.9687500000000001        0.037037        0.596113        0        
C1        C        0.9375        0.12963        0.596113        0        
C2        C        0.9687500000000001        0.185185        0.596113        0        
C3        C        0.9375        0.203703        0.596113        0        
C4        C        0.9687500000000001        0.148148        0.596113        0        
C1        C        0.9375        0.24074099999999998        0.596113        0        
C2        C        0.9687500000000001        0.296297        0.596113        0        
C3        C        0.9375        0.314815        0.596113        0        
C4        C        0.9687500000000001        0.259259        0.596113        0        
C1        C        0.9375        0.351852        0.596113        0        
C2        C        0.9687500000000001        0.407408        0.596113        0        
C3        C        0.9375        0.42592500000000005        0.596113        0        
C4        C        0.9687500000000001        0.37037        0.596113        0        
C1        C        0.9375        0.46296300000000007        0.596113        0        
C2        C        0.9687500000000001        0.518519        0.596113        0        
C3        C        0.9375        0.537037        0.596113        0        
C4        C        0.9687500000000001        0.481481        0.596113        0        
C1        C        0.9375        0.574075        0.596113        0        
C2        C        0.9687500000000001        0.62963        0.596113        0        
C3        C        0.9375        0.648148        0.596113        0        
C4        C        0.9687500000000001        0.592592        0.596113        0        
C_FG        C        0.0        0.685186        0.596113        0.2        
C1        C        0.0625        0.685186        0.596113        0        
C_FG        C        0.125        0.685186        0.596113        0.2        
C1        C        0.1875        0.685186        0.596113        0        
C_FG        C        0.25        0.685186        0.596113        0.2        
C1        C        0.3125        0.685186        0.596113        0        
C_FG        C        0.375        0.685186        0.596113        0.2        
C1        C        0.4375        0.685186        0.596113        0        
C_FG        C        0.5        0.685186        0.596113        0.2        
C1        C        0.5625        0.685186        0.596113        0        
C_FG        C        0.625        0.685186        0.596113        0.2        
C1        C        0.6875        0.685186        0.596113        0        
C_FG        C        0.75        0.685186        0.596113        0.2        
C1        C        0.8125        0.685186        0.596113        0        
C_FG        C        0.875        0.685186        0.596113        0.2        
C1        C        0.9375        0.685186        0.596113        0        
C2        C        0.03125        0.740741        0.596113        0        
C2        C        0.09375        0.740741        0.596113        0        
C2        C        0.15625        0.740741        0.596113        0        
C2        C        0.21875        0.740741        0.596113        0        
C2        C        0.28125        0.740741        0.596113        0        
C2        C        0.34375        0.740741        0.596113        0        
C2        C        0.40625        0.740741        0.596113        0        
C2        C        0.46875        0.740741        0.596113        0        
C2        C        0.53125        0.740741        0.596113        0        
C2        C        0.59375        0.740741        0.596113        0        
C2        C        0.65625        0.740741        0.596113        0        
C2        C        0.71875        0.740741        0.596113        0        
C2        C        0.78125        0.740741        0.596113        0        
C2        C        0.84375        0.740741        0.596113        0        
C2        C        0.9062500000000001        0.740741        0.596113        0        
C2        C        0.9687500000000001        0.740741        0.596113        0        
C3        C        0.0        0.759259        0.596113        0        
C3        C        0.0625        0.759259        0.596113        0        
C3        C        0.125        0.759259        0.596113        0        
C3        C        0.1875        0.759259        0.596113        0        
C3        C        0.25        0.759259        0.596113        0        
C3        C        0.3125        0.759259        0.596113        0        
C3        C        0.375        0.759259        0.596113        0        
C3        C        0.4375        0.759259        0.596113        0        
C3        C        0.5        0.759259        0.596113        0        
C3        C        0.5625        0.759259        0.596113        0        
C3        C        0.625        0.759259        0.596113        0        
C3        C        0.6875        0.759259        0.596113        0        
C3        C        0.75        0.759259        0.596113        0        
C3        C        0.8125        0.759259        0.596113        0        
C3        C        0.875        0.759259        0.596113        0        
C3        C        0.9375        0.759259        0.596113        0        
C4        C        0.03125        0.703703        0.596113        0        
C4        C        0.09375        0.703703        0.596113        0        
C4        C        0.15625        0.703703        0.596113        0        
C4        C        0.21875        0.703703        0.596113        0        
C4        C        0.28125        0.703703        0.596113        0        
C4        C        0.34375        0.703703        0.596113        0        
C4        C        0.40625        0.703703        0.596113        0        
C4        C        0.46875        0.703703        0.596113        0        
C4        C        0.53125        0.703703        0.596113        0        
C4        C        0.59375        0.703703        0.596113        0        
C4        C        0.65625        0.703703        0.596113        0        
C4        C        0.71875        0.703703        0.596113        0        
C4        C        0.78125        0.703703        0.596113        0        
C4        C        0.84375        0.703703        0.596113        0        
C4        C        0.9062500000000001        0.703703        0.596113        0        
C4        C        0.9687500000000001        0.703703        0.596113        0        
C_FG        C        0.0        0.796297        0.596113        0.2        
C1        C        0.0625        0.796297        0.596113        0        
C_FG        C        0.125        0.796297        0.596113        0.2        
C1        C        0.1875        0.796297        0.596113        0        
C_FG        C        0.25        0.796297        0.596113        0.2        
C1        C        0.3125        0.796297        0.596113        0        
C_FG        C        0.375        0.796297        0.596113        0.2        
C1        C        0.4375        0.796297        0.596113        0        
C_FG        C        0.5        0.796297        0.596113        0.2        
C1        C        0.5625        0.796297        0.596113        0        
C_FG        C        0.625        0.796297        0.596113        0.2        
C1        C        0.6875        0.796297        0.596113        0        
C_FG        C        0.75        0.796297        0.596113        0.2        
C1        C        0.8125        0.796297        0.596113        0        
C_FG        C        0.875        0.796297        0.596113        0.2        
C1        C        0.9375        0.796297        0.596113        0        
C2        C        0.03125        0.851852        0.596113        0        
C2        C        0.09375        0.851852        0.596113        0        
C2        C        0.15625        0.851852        0.596113        0        
C2        C        0.21875        0.851852        0.596113        0        
C2        C        0.28125        0.851852        0.596113        0        
C2        C        0.34375        0.851852        0.596113        0        
C2        C        0.40625        0.851852        0.596113        0        
C2        C        0.46875        0.851852        0.596113        0        
C2        C        0.53125        0.851852        0.596113        0        
C2        C        0.59375        0.851852        0.596113        0        
C2        C        0.65625        0.851852        0.596113        0        
C2        C        0.71875        0.851852        0.596113        0        
C2        C        0.78125        0.851852        0.596113        0        
C2        C        0.84375        0.851852        0.596113        0        
C2        C        0.9062500000000001        0.851852        0.596113        0        
C2        C        0.9687500000000001        0.851852        0.596113        0        
C3        C        0.0        0.87037        0.596113        0        
C3        C        0.0625        0.87037        0.596113        0        
C3        C        0.125        0.87037        0.596113        0        
C3        C        0.1875        0.87037        0.596113        0        
C3        C        0.25        0.87037        0.596113        0        
C3        C        0.3125        0.87037        0.596113        0        
C3        C        0.375        0.87037        0.596113        0        
C3        C        0.4375        0.87037        0.596113        0        
C3        C        0.5        0.87037        0.596113        0        
C3        C        0.5625        0.87037        0.596113        0        
C3        C        0.625        0.87037        0.596113        0        
C3        C        0.6875        0.87037        0.596113        0        
C3        C        0.75        0.87037        0.596113        0        
C3        C        0.8125        0.87037        0.596113        0        
C3        C        0.875        0.87037        0.596113        0        
C3        C        0.9375        0.87037        0.596113        0        
C4        C        0.03125        0.814814        0.596113        0        
C4        C        0.09375        0.814814        0.596113        0        
C4        C        0.15625        0.814814        0.596113        0        
C4        C        0.21875        0.814814        0.596113        0        
C4        C        0.28125        0.814814        0.596113        0        
C4        C        0.34375        0.814814        0.596113        0        
C4        C        0.40625        0.814814        0.596113        0        
C4        C        0.46875        0.814814        0.596113        0        
C4        C        0.53125        0.814814        0.596113        0        
C4        C        0.59375        0.814814        0.596113        0        
C4        C        0.65625        0.814814        0.596113        0        
C4        C        0.71875        0.814814        0.596113        0        
C4        C        0.78125        0.814814        0.596113        0        
C4        C        0.84375        0.814814        0.596113        0        
C4        C        0.9062500000000001        0.814814        0.596113        0        
C4        C        0.9687500000000001        0.814814        0.596113        0        
C_FG        C        0.0        0.907408        0.596113        0.2        
C1        C        0.0625        0.907408        0.596113        0        
C_FG        C        0.125        0.907408        0.596113        0.2        
C1        C        0.1875        0.907408        0.596113        0        
C_FG        C        0.25        0.907408        0.596113        0.2        
C1        C        0.3125        0.907408        0.596113        0        
C_FG        C        0.375        0.907408        0.596113        0.2        
C1        C        0.4375        0.907408        0.596113        0        
C_FG        C        0.5        0.907408        0.596113        0.2        
C1        C        0.5625        0.907408        0.596113        0        
C_FG        C        0.625        0.907408        0.596113        0.2        
C1        C        0.6875        0.907408        0.596113        0        
C_FG        C        0.75        0.907408        0.596113        0.2        
C1        C        0.8125        0.907408        0.596113        0        
C_FG        C        0.875        0.907408        0.596113        0.2        
C1        C        0.9375        0.907408        0.596113        0        
C2        C        0.03125        0.962963        0.596113        0        
C2        C        0.09375        0.962963        0.596113        0        
C2        C        0.15625        0.962963        0.596113        0        
C2        C        0.21875        0.962963        0.596113        0        
C2        C        0.28125        0.962963        0.596113        0        
C2        C        0.34375        0.962963        0.596113        0        
C2        C        0.40625        0.962963        0.596113        0        
C2        C        0.46875        0.962963        0.596113        0        
C2        C        0.53125        0.962963        0.596113        0        
C2        C        0.59375        0.962963        0.596113        0        
C2        C        0.65625        0.962963        0.596113        0        
C2        C        0.71875        0.962963        0.596113        0        
C2        C        0.78125        0.962963        0.596113        0        
C2        C        0.84375        0.962963        0.596113        0        
C2        C        0.9062500000000001        0.962963        0.596113        0        
C2        C        0.9687500000000001        0.962963        0.596113        0        
C3        C        0.0        0.9814809999999999        0.596113        0        
C3        C        0.0625        0.9814809999999999        0.596113        0        
C3        C        0.125        0.9814809999999999        0.596113        0        
C3        C        0.1875        0.9814809999999999        0.596113        0        
C3        C        0.25        0.9814809999999999        0.596113        0        
C3        C        0.3125        0.9814809999999999        0.596113        0        
C3        C        0.375        0.9814809999999999        0.596113        0        
C3        C        0.4375        0.9814809999999999        0.596113        0        
C3        C        0.5        0.9814809999999999        0.596113        0        
C3        C        0.5625        0.9814809999999999        0.596113        0        
C3        C        0.625        0.9814809999999999        0.596113        0        
C3        C        0.6875        0.9814809999999999        0.596113        0        
C3        C        0.75        0.9814809999999999        0.596113        0        
C3        C        0.8125        0.9814809999999999        0.596113        0        
C3        C        0.875        0.9814809999999999        0.596113        0        
C3        C        0.9375        0.9814809999999999        0.596113        0        
C4        C        0.03125        0.925925        0.596113        0        
C4        C        0.09375        0.925925        0.596113        0        
C4        C        0.15625        0.925925        0.596113        0        
C4        C        0.21875        0.925925        0.596113        0        
C4        C        0.28125        0.925925        0.596113        0        
C4        C        0.34375        0.925925        0.596113        0        
C4        C        0.40625        0.925925        0.596113        0        
C4        C        0.46875        0.925925        0.596113        0        
C4        C        0.53125        0.925925        0.596113        0        
C4        C        0.59375        0.925925        0.596113        0        
C4        C        0.65625        0.925925        0.596113        0        
C4        C        0.71875        0.925925        0.596113        0        
C4        C        0.78125        0.925925        0.596113        0        
C4        C        0.84375        0.925925        0.596113        0        
C4        C        0.9062500000000001        0.925925        0.596113        0        
C4        C        0.9687500000000001        0.925925        0.596113        0        
C1        C        0.0        0.018519        0.668467        0        
C2        C        0.03125        0.074075        0.668467        0        
C3        C        0.0        0.092592        0.668467        0        
C4        C        0.03125        0.037037        0.668467        0        
C1        C        0.0        0.12963        0.668467        0        
C2        C        0.03125        0.185185        0.668467        0        
C3        C        0.0        0.203703        0.668467        0        
C4        C        0.03125        0.148148        0.668467        0        
C1        C        0.0        0.24074099999999998        0.668467        0        
C2        C        0.03125        0.296297        0.668467        0        
C3        C        0.0        0.314815        0.668467        0        
C4        C        0.03125        0.259259        0.668467        0        
C1        C        0.0        0.351852        0.668467        0        
C2        C        0.03125        0.407408        0.668467        0        
C3        C        0.0        0.42592500000000005        0.668467        0        
C4        C        0.03125        0.37037        0.668467        0        
C1        C        0.0        0.46296300000000007        0.668467        0        
C2        C        0.03125        0.518519        0.668467        0        
C3        C        0.0        0.537037        0.668467        0        
C4        C        0.03125        0.481481        0.668467        0        
C1        C        0.0        0.574075        0.668467        0        
C2        C        0.03125        0.62963        0.668467        0        
C3        C        0.0        0.648148        0.668467        0        
C4        C        0.03125        0.592592        0.668467        0        
C1        C        0.0625        0.018519        0.668467        0        
C2        C        0.09375        0.074075        0.668467        0        
C3        C        0.0625        0.092592        0.668467        0        
C4        C        0.09375        0.037037        0.668467        0        
C1        C        0.0625        0.12963        0.668467        0        
C2        C        0.09375        0.185185        0.668467        0        
C3        C        0.0625        0.203703        0.668467        0        
C4        C        0.09375        0.148148        0.668467        0        
C1        C        0.0625        0.24074099999999998        0.668467        0        
C2        C        0.09375        0.296297        0.668467        0        
C3        C        0.0625        0.314815        0.668467        0        
C4        C        0.09375        0.259259        0.668467        0        
C1        C        0.0625        0.351852        0.668467        0        
C2        C        0.09375        0.407408        0.668467        0        
C3        C        0.0625        0.42592500000000005        0.668467        0        
C4        C        0.09375        0.37037        0.668467        0        
C1        C        0.0625        0.46296300000000007        0.668467        0        
C2        C        0.09375        0.518519        0.668467        0        
C3        C        0.0625        0.537037        0.668467        0        
C4        C        0.09375        0.481481        0.668467        0        
C1        C        0.0625        0.574075        0.668467        0        
C2        C        0.09375        0.62963        0.668467        0        
C3        C        0.0625        0.648148        0.668467        0        
C4        C        0.09375        0.592592        0.668467        0        
C1        C        0.125        0.018519        0.668467        0        
C2        C        0.15625        0.074075        0.668467        0        
C3        C        0.125        0.092592        0.668467        0        
C4        C        0.15625        0.037037        0.668467        0        
C1        C        0.125        0.12963        0.668467        0        
C2        C        0.15625        0.185185        0.668467        0        
C3        C        0.125        0.203703        0.668467        0        
C4        C        0.15625        0.148148        0.668467        0        
C1        C        0.125        0.24074099999999998        0.668467        0        
C2        C        0.15625        0.296297        0.668467        0        
C3        C        0.125        0.314815        0.668467        0        
C4        C        0.15625        0.259259        0.668467        0        
C1        C        0.125        0.351852        0.668467        0        
C2        C        0.15625        0.407408        0.668467        0        
C3        C        0.125        0.42592500000000005        0.668467        0        
C4        C        0.15625        0.37037        0.668467        0        
C1        C        0.125        0.46296300000000007        0.668467        0        
C2        C        0.15625        0.518519        0.668467        0        
C3        C        0.125        0.537037        0.668467        0        
C4        C        0.15625        0.481481        0.668467        0        
C1        C        0.125        0.574075        0.668467        0        
C2        C        0.15625        0.62963        0.668467        0        
C3        C        0.125        0.648148        0.668467        0        
C4        C        0.15625        0.592592        0.668467        0        
C1        C        0.1875        0.018519        0.668467        0        
C2        C        0.21875        0.074075        0.668467        0        
C3        C        0.1875        0.092592        0.668467        0        
C4        C        0.21875        0.037037        0.668467        0        
C1        C        0.1875        0.12963        0.668467        0        
C2        C        0.21875        0.185185        0.668467        0        
C3        C        0.1875        0.203703        0.668467        0        
C4        C        0.21875        0.148148        0.668467        0        
C1        C        0.1875        0.24074099999999998        0.668467        0        
C2        C        0.21875        0.296297        0.668467        0        
C3        C        0.1875        0.314815        0.668467        0        
C4        C        0.21875        0.259259        0.668467        0        
C1        C        0.1875        0.351852        0.668467        0        
C2        C        0.21875        0.407408        0.668467        0        
C3        C        0.1875        0.42592500000000005        0.668467        0        
C4        C        0.21875        0.37037        0.668467        0        
C1        C        0.1875        0.46296300000000007        0.668467        0        
C2        C        0.21875        0.518519        0.668467        0        
C3        C        0.1875        0.537037        0.668467        0        
C4        C        0.21875        0.481481        0.668467        0        
C1        C        0.1875        0.574075        0.668467        0        
C2        C        0.21875        0.62963        0.668467        0        
C3        C        0.1875        0.648148        0.668467        0        
C4        C        0.21875        0.592592        0.668467        0        
C1        C        0.25        0.018519        0.668467        0        
C2        C        0.28125        0.074075        0.668467        0        
C3        C        0.25        0.092592        0.668467        0        
C4        C        0.28125        0.037037        0.668467        0        
C1        C        0.25        0.12963        0.668467        0        
C2        C        0.28125        0.185185        0.668467        0        
C3        C        0.25        0.203703        0.668467        0        
C4        C        0.28125        0.148148        0.668467        0        
C1        C        0.25        0.24074099999999998        0.668467        0        
C2        C        0.28125        0.296297        0.668467        0        
C3        C        0.25        0.314815        0.668467        0        
C4        C        0.28125        0.259259        0.668467        0        
C1        C        0.25        0.351852        0.668467        0        
C2        C        0.28125        0.407408        0.668467        0        
C3        C        0.25        0.42592500000000005        0.668467        0        
C4        C        0.28125        0.37037        0.668467        0        
C1        C        0.25        0.46296300000000007        0.668467        0        
C2        C        0.28125        0.518519        0.668467        0        
C3        C        0.25        0.537037        0.668467        0        
C4        C        0.28125        0.481481        0.668467        0        
C1        C        0.25        0.574075        0.668467        0        
C2        C        0.28125        0.62963        0.668467        0        
C3        C        0.25        0.648148        0.668467        0        
C4        C        0.28125        0.592592        0.668467        0        
C1        C        0.3125        0.018519        0.668467        0        
C2        C        0.34375        0.074075        0.668467        0        
C3        C        0.3125        0.092592        0.668467        0        
C4        C        0.34375        0.037037        0.668467        0        
C1        C        0.3125        0.12963        0.668467        0        
C2        C        0.34375        0.185185        0.668467        0        
C3        C        0.3125        0.203703        0.668467        0        
C4        C        0.34375        0.148148        0.668467        0        
C1        C        0.3125        0.24074099999999998        0.668467        0        
C2        C        0.34375        0.296297        0.668467        0        
C3        C        0.3125        0.314815        0.668467        0        
C4        C        0.34375        0.259259        0.668467        0        
C1        C        0.3125        0.351852        0.668467        0        
C2        C        0.34375        0.407408        0.668467        0        
C3        C        0.3125        0.42592500000000005        0.668467        0        
C4        C        0.34375        0.37037        0.668467        0        
C1        C        0.3125        0.46296300000000007        0.668467        0        
C2        C        0.34375        0.518519        0.668467        0        
C3        C        0.3125        0.537037        0.668467        0        
C4        C        0.34375        0.481481        0.668467        0        
C1        C        0.3125        0.574075        0.668467        0        
C2        C        0.34375        0.62963        0.668467        0        
C3        C        0.3125        0.648148        0.668467        0        
C4        C        0.34375        0.592592        0.668467        0        
C1        C        0.375        0.018519        0.668467        0        
C2        C        0.40625        0.074075        0.668467        0        
C3        C        0.375        0.092592        0.668467        0        
C4        C        0.40625        0.037037        0.668467        0        
C1        C        0.375        0.12963        0.668467        0        
C2        C        0.40625        0.185185        0.668467        0        
C3        C        0.375        0.203703        0.668467        0        
C4        C        0.40625        0.148148        0.668467        0        
C1        C        0.375        0.24074099999999998        0.668467        0        
C2        C        0.40625        0.296297        0.668467        0        
C3        C        0.375        0.314815        0.668467        0        
C4        C        0.40625        0.259259        0.668467        0        
C1        C        0.375        0.351852        0.668467        0        
C2        C        0.40625        0.407408        0.668467        0        
C3        C        0.375        0.42592500000000005        0.668467        0        
C4        C        0.40625        0.37037        0.668467        0        
C1        C        0.375        0.46296300000000007        0.668467        0        
C2        C        0.40625        0.518519        0.668467        0        
C3        C        0.375        0.537037        0.668467        0        
C4        C        0.40625        0.481481        0.668467        0        
C1        C        0.375        0.574075        0.668467        0        
C2        C        0.40625        0.62963        0.668467        0        
C3        C        0.375        0.648148        0.668467        0        
C4        C        0.40625        0.592592        0.668467        0        
C1        C        0.4375        0.018519        0.668467        0        
C2        C        0.46875        0.074075        0.668467        0        
C3        C        0.4375        0.092592        0.668467        0        
C4        C        0.46875        0.037037        0.668467        0        
C1        C        0.4375        0.12963        0.668467        0        
C2        C        0.46875        0.185185        0.668467        0        
C3        C        0.4375        0.203703        0.668467        0        
C4        C        0.46875        0.148148        0.668467        0        
C1        C        0.4375        0.24074099999999998        0.668467        0        
C2        C        0.46875        0.296297        0.668467        0        
C3        C        0.4375        0.314815        0.668467        0        
C4        C        0.46875        0.259259        0.668467        0        
C1        C        0.4375        0.351852        0.668467        0        
C2        C        0.46875        0.407408        0.668467        0        
C3        C        0.4375        0.42592500000000005        0.668467        0        
C4        C        0.46875        0.37037        0.668467        0        
C1        C        0.4375        0.46296300000000007        0.668467        0        
C2        C        0.46875        0.518519        0.668467        0        
C3        C        0.4375        0.537037        0.668467        0        
C4        C        0.46875        0.481481        0.668467        0        
C1        C        0.4375        0.574075        0.668467        0        
C2        C        0.46875        0.62963        0.668467        0        
C3        C        0.4375        0.648148        0.668467        0        
C4        C        0.46875        0.592592        0.668467        0        
C1        C        0.5        0.018519        0.668467        0        
C2        C        0.53125        0.074075        0.668467        0        
C3        C        0.5        0.092592        0.668467        0        
C4        C        0.53125        0.037037        0.668467        0        
C1        C        0.5        0.12963        0.668467        0        
C2        C        0.53125        0.185185        0.668467        0        
C3        C        0.5        0.203703        0.668467        0        
C4        C        0.53125        0.148148        0.668467        0        
C1        C        0.5        0.24074099999999998        0.668467        0        
C2        C        0.53125        0.296297        0.668467        0        
C3        C        0.5        0.314815        0.668467        0        
C4        C        0.53125        0.259259        0.668467        0        
C1        C        0.5        0.351852        0.668467        0        
C2        C        0.53125        0.407408        0.668467        0        
C3        C        0.5        0.42592500000000005        0.668467        0        
C4        C        0.53125        0.37037        0.668467        0        
C1        C        0.5        0.46296300000000007        0.668467        0        
C2        C        0.53125        0.518519        0.668467        0        
C3        C        0.5        0.537037        0.668467        0        
C4        C        0.53125        0.481481        0.668467        0        
C1        C        0.5        0.574075        0.668467        0        
C2        C        0.53125        0.62963        0.668467        0        
C3        C        0.5        0.648148        0.668467        0        
C4        C        0.53125        0.592592        0.668467        0        
C1        C        0.5625        0.018519        0.668467        0        
C2        C        0.59375        0.074075        0.668467        0        
C3        C        0.5625        0.092592        0.668467        0        
C4        C        0.59375        0.037037        0.668467        0        
C1        C        0.5625        0.12963        0.668467        0        
C2        C        0.59375        0.185185        0.668467        0        
C3        C        0.5625        0.203703        0.668467        0        
C4        C        0.59375        0.148148        0.668467        0        
C1        C        0.5625        0.24074099999999998        0.668467        0        
C2        C        0.59375        0.296297        0.668467        0        
C3        C        0.5625        0.314815        0.668467        0        
C4        C        0.59375        0.259259        0.668467        0        
C1        C        0.5625        0.351852        0.668467        0        
C2        C        0.59375        0.407408        0.668467        0        
C3        C        0.5625        0.42592500000000005        0.668467        0        
C4        C        0.59375        0.37037        0.668467        0        
C1        C        0.5625        0.46296300000000007        0.668467        0        
C2        C        0.59375        0.518519        0.668467        0        
C3        C        0.5625        0.537037        0.668467        0        
C4        C        0.59375        0.481481        0.668467        0        
C1        C        0.5625        0.574075        0.668467        0        
C2        C        0.59375        0.62963        0.668467        0        
C3        C        0.5625        0.648148        0.668467        0        
C4        C        0.59375        0.592592        0.668467        0        
C1        C        0.625        0.018519        0.668467        0        
C2        C        0.65625        0.074075        0.668467        0        
C3        C        0.625        0.092592        0.668467        0        
C4        C        0.65625        0.037037        0.668467        0        
C1        C        0.625        0.12963        0.668467        0        
C2        C        0.65625        0.185185        0.668467        0        
C3        C        0.625        0.203703        0.668467        0        
C4        C        0.65625        0.148148        0.668467        0        
C1        C        0.625        0.24074099999999998        0.668467        0        
C2        C        0.65625        0.296297        0.668467        0        
C3        C        0.625        0.314815        0.668467        0        
C4        C        0.65625        0.259259        0.668467        0        
C1        C        0.625        0.351852        0.668467        0        
C2        C        0.65625        0.407408        0.668467        0        
C3        C        0.625        0.42592500000000005        0.668467        0        
C4        C        0.65625        0.37037        0.668467        0        
C1        C        0.625        0.46296300000000007        0.668467        0        
C2        C        0.65625        0.518519        0.668467        0        
C3        C        0.625        0.537037        0.668467        0        
C4        C        0.65625        0.481481        0.668467        0        
C1        C        0.625        0.574075        0.668467        0        
C2        C        0.65625        0.62963        0.668467        0        
C3        C        0.625        0.648148        0.668467        0        
C4        C        0.65625        0.592592        0.668467        0        
C1        C        0.6875        0.018519        0.668467        0        
C2        C        0.71875        0.074075        0.668467        0        
C3        C        0.6875        0.092592        0.668467        0        
C4        C        0.71875        0.037037        0.668467        0        
C1        C        0.6875        0.12963        0.668467        0        
C2        C        0.71875        0.185185        0.668467        0        
C3        C        0.6875        0.203703        0.668467        0        
C4        C        0.71875        0.148148        0.668467        0        
C1        C        0.6875        0.24074099999999998        0.668467        0        
C2        C        0.71875        0.296297        0.668467        0        
C3        C        0.6875        0.314815        0.668467        0        
C4        C        0.71875        0.259259        0.668467        0        
C1        C        0.6875        0.351852        0.668467        0        
C2        C        0.71875        0.407408        0.668467        0        
C3        C        0.6875        0.42592500000000005        0.668467        0        
C4        C        0.71875        0.37037        0.668467        0        
C1        C        0.6875        0.46296300000000007        0.668467        0        
C2        C        0.71875        0.518519        0.668467        0        
C3        C        0.6875        0.537037        0.668467        0        
C4        C        0.71875        0.481481        0.668467        0        
C1        C        0.6875        0.574075        0.668467        0        
C2        C        0.71875        0.62963        0.668467        0        
C3        C        0.6875        0.648148        0.668467        0        
C4        C        0.71875        0.592592        0.668467        0        
C1        C        0.75        0.018519        0.668467        0        
C2        C        0.78125        0.074075        0.668467        0        
C3        C        0.75        0.092592        0.668467        0        
C4        C        0.78125        0.037037        0.668467        0        
C1        C        0.75        0.12963        0.668467        0        
C2        C        0.78125        0.185185        0.668467        0        
C3        C        0.75        0.203703        0.668467        0        
C4        C        0.78125        0.148148        0.668467        0        
C1        C        0.75        0.24074099999999998        0.668467        0        
C2        C        0.78125        0.296297        0.668467        0        
C3        C        0.75        0.314815        0.668467        0        
C4        C        0.78125        0.259259        0.668467        0        
C1        C        0.75        0.351852        0.668467        0        
C2        C        0.78125        0.407408        0.668467        0        
C3        C        0.75        0.42592500000000005        0.668467        0        
C4        C        0.78125        0.37037        0.668467        0        
C1        C        0.75        0.46296300000000007        0.668467        0        
C2        C        0.78125        0.518519        0.668467        0        
C3        C        0.75        0.537037        0.668467        0        
C4        C        0.78125        0.481481        0.668467        0        
C1        C        0.75        0.574075        0.668467        0        
C2        C        0.78125        0.62963        0.668467        0        
C3        C        0.75        0.648148        0.668467        0        
C4        C        0.78125        0.592592        0.668467        0        
C1        C        0.8125        0.018519        0.668467        0        
C2        C        0.84375        0.074075        0.668467        0        
C3        C        0.8125        0.092592        0.668467        0        
C4        C        0.84375        0.037037        0.668467        0        
C1        C        0.8125        0.12963        0.668467        0        
C2        C        0.84375        0.185185        0.668467        0        
C3        C        0.8125        0.203703        0.668467        0        
C4        C        0.84375        0.148148        0.668467        0        
C1        C        0.8125        0.24074099999999998        0.668467        0        
C2        C        0.84375        0.296297        0.668467        0        
C3        C        0.8125        0.314815        0.668467        0        
C4        C        0.84375        0.259259        0.668467        0        
C1        C        0.8125        0.351852        0.668467        0        
C2        C        0.84375        0.407408        0.668467        0        
C3        C        0.8125        0.42592500000000005        0.668467        0        
C4        C        0.84375        0.37037        0.668467        0        
C1        C        0.8125        0.46296300000000007        0.668467        0        
C2        C        0.84375        0.518519        0.668467        0        
C3        C        0.8125        0.537037        0.668467        0        
C4        C        0.84375        0.481481        0.668467        0        
C1        C        0.8125        0.574075        0.668467        0        
C2        C        0.84375        0.62963        0.668467        0        
C3        C        0.8125        0.648148        0.668467        0        
C4        C        0.84375        0.592592        0.668467        0        
C1        C        0.875        0.018519        0.668467        0        
C2        C        0.9062500000000001        0.074075        0.668467        0        
C3        C        0.875        0.092592        0.668467        0        
C4        C        0.9062500000000001        0.037037        0.668467        0        
C1        C        0.875        0.12963        0.668467        0        
C2        C        0.9062500000000001        0.185185        0.668467        0        
C3        C        0.875        0.203703        0.668467        0        
C4        C        0.9062500000000001        0.148148        0.668467        0        
C1        C        0.875        0.24074099999999998        0.668467        0        
C2        C        0.9062500000000001        0.296297        0.668467        0        
C3        C        0.875        0.314815        0.668467        0        
C4        C        0.9062500000000001        0.259259        0.668467        0        
C1        C        0.875        0.351852        0.668467        0        
C2        C        0.9062500000000001        0.407408        0.668467        0        
C3        C        0.875        0.42592500000000005        0.668467        0        
C4        C        0.9062500000000001        0.37037        0.668467        0        
C1        C        0.875        0.46296300000000007        0.668467        0        
C2        C        0.9062500000000001        0.518519        0.668467        0        
C3        C        0.875        0.537037        0.668467        0        
C4        C        0.9062500000000001        0.481481        0.668467        0        
C1        C        0.875        0.574075        0.668467        0        
C2        C        0.9062500000000001        0.62963        0.668467        0        
C3        C        0.875        0.648148        0.668467        0        
C4        C        0.9062500000000001        0.592592        0.668467        0        
C1        C        0.9375        0.018519        0.668467        0        
C2        C        0.9687500000000001        0.074075        0.668467        0        
C3        C        0.9375        0.092592        0.668467        0        
C4        C        0.9687500000000001        0.037037        0.668467        0        
C1        C        0.9375        0.12963        0.668467        0        
C2        C        0.9687500000000001        0.185185        0.668467        0        
C3        C        0.9375        0.203703        0.668467        0        
C4        C        0.9687500000000001        0.148148        0.668467        0        
C1        C        0.9375        0.24074099999999998        0.668467        0        
C2        C        0.9687500000000001        0.296297        0.668467        0        
C3        C        0.9375        0.314815        0.668467        0        
C4        C        0.9687500000000001        0.259259        0.668467        0        
C1        C        0.9375        0.351852        0.668467        0        
C2        C        0.9687500000000001        0.407408        0.668467        0        
C3        C        0.9375        0.42592500000000005        0.668467        0        
C4        C        0.9687500000000001        0.37037        0.668467        0        
C1        C        0.9375        0.46296300000000007        0.668467        0        
C2        C        0.9687500000000001        0.518519        0.668467        0        
C3        C        0.9375        0.537037        0.668467        0        
C4        C        0.9687500000000001        0.481481        0.668467        0        
C1        C        0.9375        0.574075        0.668467        0        
C2        C        0.9687500000000001        0.62963        0.668467        0        
C3        C        0.9375        0.648148        0.668467        0        
C4        C        0.9687500000000001        0.592592        0.668467        0        
C1        C        0.0        0.685186        0.668467        0        
C1        C        0.0625        0.685186        0.668467        0        
C1        C        0.125        0.685186        0.668467        0        
C1        C        0.1875        0.685186        0.668467        0        
C1        C        0.25        0.685186        0.668467        0        
C1        C        0.3125        0.685186        0.668467        0        
C1        C        0.375        0.685186        0.668467        0        
C1        C        0.4375        0.685186        0.668467        0        
C1        C        0.5        0.685186        0.668467        0        
C1        C        0.5625        0.685186        0.668467        0        
C1        C        0.625        0.685186        0.668467        0        
C1        C        0.6875        0.685186        0.668467        0        
C1        C        0.75        0.685186        0.668467        0        
C1        C        0.8125        0.685186        0.668467        0        
C1        C        0.875        0.685186        0.668467        0        
C1        C        0.9375        0.685186        0.668467        0        
C2        C        0.03125        0.740741        0.668467        0        
C2        C        0.09375        0.740741        0.668467        0        
C2        C        0.15625        0.740741        0.668467        0        
C2        C        0.21875        0.740741        0.668467        0        
C2        C        0.28125        0.740741        0.668467        0        
C2        C        0.34375        0.740741        0.668467        0        
C2        C        0.40625        0.740741        0.668467        0        
C2        C        0.46875        0.740741        0.668467        0        
C2        C        0.53125        0.740741        0.668467        0        
C2        C        0.59375        0.740741        0.668467        0        
C2        C        0.65625        0.740741        0.668467        0        
C2        C        0.71875        0.740741        0.668467        0        
C2        C        0.78125        0.740741        0.668467        0        
C2        C        0.84375        0.740741        0.668467        0        
C2        C        0.9062500000000001        0.740741        0.668467        0        
C2        C        0.9687500000000001        0.740741        0.668467        0        
C3        C        0.0        0.759259        0.668467        0        
C3        C        0.0625        0.759259        0.668467        0        
C3        C        0.125        0.759259        0.668467        0        
C3        C        0.1875        0.759259        0.668467        0        
C3        C        0.25        0.759259        0.668467        0        
C3        C        0.3125        0.759259        0.668467        0        
C3        C        0.375        0.759259        0.668467        0        
C3        C        0.4375        0.759259        0.668467        0        
C3        C        0.5        0.759259        0.668467        0        
C3        C        0.5625        0.759259        0.668467        0        
C3        C        0.625        0.759259        0.668467        0        
C3        C        0.6875        0.759259        0.668467        0        
C3        C        0.75        0.759259        0.668467        0        
C3        C        0.8125        0.759259        0.668467        0        
C3        C        0.875        0.759259        0.668467        0        
C3        C        0.9375        0.759259        0.668467        0        
C4        C        0.03125        0.703703        0.668467        0        
C4        C        0.09375        0.703703        0.668467        0        
C4        C        0.15625        0.703703        0.668467        0        
C4        C        0.21875        0.703703        0.668467        0        
C4        C        0.28125        0.703703        0.668467        0        
C4        C        0.34375        0.703703        0.668467        0        
C4        C        0.40625        0.703703        0.668467        0        
C4        C        0.46875        0.703703        0.668467        0        
C4        C        0.53125        0.703703        0.668467        0        
C4        C        0.59375        0.703703        0.668467        0        
C4        C        0.65625        0.703703        0.668467        0        
C4        C        0.71875        0.703703        0.668467        0        
C4        C        0.78125        0.703703        0.668467        0        
C4        C        0.84375        0.703703        0.668467        0        
C4        C        0.9062500000000001        0.703703        0.668467        0        
C4        C        0.9687500000000001        0.703703        0.668467        0        
C1        C        0.0        0.796297        0.668467        0        
C1        C        0.0625        0.796297        0.668467        0        
C1        C        0.125        0.796297        0.668467        0        
C1        C        0.1875        0.796297        0.668467        0        
C1        C        0.25        0.796297        0.668467        0        
C1        C        0.3125        0.796297        0.668467        0        
C1        C        0.375        0.796297        0.668467        0        
C1        C        0.4375        0.796297        0.668467        0        
C1        C        0.5        0.796297        0.668467        0        
C1        C        0.5625        0.796297        0.668467        0        
C1        C        0.625        0.796297        0.668467        0        
C1        C        0.6875        0.796297        0.668467        0        
C1        C        0.75        0.796297        0.668467        0        
C1        C        0.8125        0.796297        0.668467        0        
C1        C        0.875        0.796297        0.668467        0        
C1        C        0.9375        0.796297        0.668467        0        
C2        C        0.03125        0.851852        0.668467        0        
C2        C        0.09375        0.851852        0.668467        0        
C2        C        0.15625        0.851852        0.668467        0        
C2        C        0.21875        0.851852        0.668467        0        
C2        C        0.28125        0.851852        0.668467        0        
C2        C        0.34375        0.851852        0.668467        0        
C2        C        0.40625        0.851852        0.668467        0        
C2        C        0.46875        0.851852        0.668467        0        
C2        C        0.53125        0.851852        0.668467        0        
C2        C        0.59375        0.851852        0.668467        0        
C2        C        0.65625        0.851852        0.668467        0        
C2        C        0.71875        0.851852        0.668467        0        
C2        C        0.78125        0.851852        0.668467        0        
C2        C        0.84375        0.851852        0.668467        0        
C2        C        0.9062500000000001        0.851852        0.668467        0        
C2        C        0.9687500000000001        0.851852        0.668467        0        
C3        C        0.0        0.87037        0.668467        0        
C3        C        0.0625        0.87037        0.668467        0        
C3        C        0.125        0.87037        0.668467        0        
C3        C        0.1875        0.87037        0.668467        0        
C3        C        0.25        0.87037        0.668467        0        
C3        C        0.3125        0.87037        0.668467        0        
C3        C        0.375        0.87037        0.668467        0        
C3        C        0.4375        0.87037        0.668467        0        
C3        C        0.5        0.87037        0.668467        0        
C3        C        0.5625        0.87037        0.668467        0        
C3        C        0.625        0.87037        0.668467        0        
C3        C        0.6875        0.87037        0.668467        0        
C3        C        0.75        0.87037        0.668467        0        
C3        C        0.8125        0.87037        0.668467        0        
C3        C        0.875        0.87037        0.668467        0        
C3        C        0.9375        0.87037        0.668467        0        
C4        C        0.03125        0.814814        0.668467        0        
C4        C        0.09375        0.814814        0.668467        0        
C4        C        0.15625        0.814814        0.668467        0        
C4        C        0.21875        0.814814        0.668467        0        
C4        C        0.28125        0.814814        0.668467        0        
C4        C        0.34375        0.814814        0.668467        0        
C4        C        0.40625        0.814814        0.668467        0        
C4        C        0.46875        0.814814        0.668467        0        
C4        C        0.53125        0.814814        0.668467        0        
C4        C        0.59375        0.814814        0.668467        0        
C4        C        0.65625        0.814814        0.668467        0        
C4        C        0.71875        0.814814        0.668467        0        
C4        C        0.78125        0.814814        0.668467        0        
C4        C        0.84375        0.814814        0.668467        0        
C4        C        0.9062500000000001        0.814814        0.668467        0        
C4        C        0.9687500000000001        0.814814        0.668467        0        
C1        C        0.0        0.907408        0.668467        0        
C1        C        0.0625        0.907408        0.668467        0        
C1        C        0.125        0.907408        0.668467        0        
C1        C        0.1875        0.907408        0.668467        0        
C1        C        0.25        0.907408        0.668467        0        
C1        C        0.3125        0.907408        0.668467        0        
C1        C        0.375        0.907408        0.668467        0        
C1        C        0.4375        0.907408        0.668467        0        
C1        C        0.5        0.907408        0.668467        0        
C1        C        0.5625        0.907408        0.668467        0        
C1        C        0.625        0.907408        0.668467        0        
C1        C        0.6875        0.907408        0.668467        0        
C1        C        0.75        0.907408        0.668467        0        
C1        C        0.8125        0.907408        0.668467        0        
C1        C        0.875        0.907408        0.668467        0        
C1        C        0.9375        0.907408        0.668467        0        
C2        C        0.03125        0.962963        0.668467        0        
C2        C        0.09375        0.962963        0.668467        0        
C2        C        0.15625        0.962963        0.668467        0        
C2        C        0.21875        0.962963        0.668467        0        
C2        C        0.28125        0.962963        0.668467        0        
C2        C        0.34375        0.962963        0.668467        0        
C2        C        0.40625        0.962963        0.668467        0        
C2        C        0.46875        0.962963        0.668467        0        
C2        C        0.53125        0.962963        0.668467        0        
C2        C        0.59375        0.962963        0.668467        0        
C2        C        0.65625        0.962963        0.668467        0        
C2        C        0.71875        0.962963        0.668467        0        
C2        C        0.78125        0.962963        0.668467        0        
C2        C        0.84375        0.962963        0.668467        0        
C2        C        0.9062500000000001        0.962963        0.668467        0        
C2        C        0.9687500000000001        0.962963        0.668467        0        
C3        C        0.0        0.9814809999999999        0.668467        0        
C3        C        0.0625        0.9814809999999999        0.668467        0        
C3        C        0.125        0.9814809999999999        0.668467        0        
C3        C        0.1875        0.9814809999999999        0.668467        0        
C3        C        0.25        0.9814809999999999        0.668467        0        
C3        C        0.3125        0.9814809999999999        0.668467        0        
C3        C        0.375        0.9814809999999999        0.668467        0        
C3        C        0.4375        0.9814809999999999        0.668467        0        
C3        C        0.5        0.9814809999999999        0.668467        0        
C3        C        0.5625        0.9814809999999999        0.668467        0        
C3        C        0.625        0.9814809999999999        0.668467        0        
C3        C        0.6875        0.9814809999999999        0.668467        0        
C3        C        0.75        0.9814809999999999        0.668467        0        
C3        C        0.8125        0.9814809999999999        0.668467        0        
C3        C        0.875        0.9814809999999999        0.668467        0        
C3        C        0.9375        0.9814809999999999        0.668467        0        
C4        C        0.03125        0.925925        0.668467        0        
C4        C        0.09375        0.925925        0.668467        0        
C4        C        0.15625        0.925925        0.668467        0        
C4        C        0.21875        0.925925        0.668467        0        
C4        C        0.28125        0.925925        0.668467        0        
C4        C        0.34375        0.925925        0.668467        0        
C4        C        0.40625        0.925925        0.668467        0        
C4        C        0.46875        0.925925        0.668467        0        
C4        C        0.53125        0.925925        0.668467        0        
C4        C        0.59375        0.925925        0.668467        0        
C4        C        0.65625        0.925925        0.668467        0        
C4        C        0.71875        0.925925        0.668467        0        
C4        C        0.78125        0.925925        0.668467        0        
C4        C        0.84375        0.925925        0.668467        0        
C4        C        0.9062500000000001        0.925925        0.668467        0        
C4        C        0.9687500000000001        0.925925        0.668467        0        
C1        C        0.0        0.018519        0.7408210000000001        0        
C2        C        0.03125        0.074075        0.7408210000000001        0        
C3        C        0.0        0.092592        0.7408210000000001        0        
C4        C        0.03125        0.037037        0.7408210000000001        0        
C1        C        0.0        0.12963        0.7408210000000001        0        
C2        C        0.03125        0.185185        0.7408210000000001        0        
C3        C        0.0        0.203703        0.7408210000000001        0        
C4        C        0.03125        0.148148        0.7408210000000001        0        
C1        C        0.0        0.24074099999999998        0.7408210000000001        0        
C2        C        0.03125        0.296297        0.7408210000000001        0        
C3        C        0.0        0.314815        0.7408210000000001        0        
C4        C        0.03125        0.259259        0.7408210000000001        0        
C1        C        0.0        0.351852        0.7408210000000001        0        
C2        C        0.03125        0.407408        0.7408210000000001        0        
C3        C        0.0        0.42592500000000005        0.7408210000000001        0        
C4        C        0.03125        0.37037        0.7408210000000001        0        
C1        C        0.0        0.46296300000000007        0.7408210000000001        0        
C2        C        0.03125        0.518519        0.7408210000000001        0        
C3        C        0.0        0.537037        0.7408210000000001        0        
C4        C        0.03125        0.481481        0.7408210000000001        0        
C1        C        0.0        0.574075        0.7408210000000001        0        
C2        C        0.03125        0.62963        0.7408210000000001        0        
C3        C        0.0        0.648148        0.7408210000000001        0        
C4        C        0.03125        0.592592        0.7408210000000001        0        
C1        C        0.0625        0.018519        0.7408210000000001        0        
C2        C        0.09375        0.074075        0.7408210000000001        0        
C3        C        0.0625        0.092592        0.7408210000000001        0        
C4        C        0.09375        0.037037        0.7408210000000001        0        
C1        C        0.0625        0.12963        0.7408210000000001        0        
C2        C        0.09375        0.185185        0.7408210000000001        0        
C3        C        0.0625        0.203703        0.7408210000000001        0        
C4        C        0.09375        0.148148        0.7408210000000001        0        
C1        C        0.0625        0.24074099999999998        0.7408210000000001        0        
C2        C        0.09375        0.296297        0.7408210000000001        0        
C3        C        0.0625        0.314815        0.7408210000000001        0        
C4        C        0.09375        0.259259        0.7408210000000001        0        
C1        C        0.0625        0.351852        0.7408210000000001        0        
C2        C        0.09375        0.407408        0.7408210000000001        0        
C3        C        0.0625        0.42592500000000005        0.7408210000000001        0        
C4        C        0.09375        0.37037        0.7408210000000001        0        
C1        C        0.0625        0.46296300000000007        0.7408210000000001        0        
C2        C        0.09375        0.518519        0.7408210000000001        0        
C3        C        0.0625        0.537037        0.7408210000000001        0        
C4        C        0.09375        0.481481        0.7408210000000001        0        
C1        C        0.0625        0.574075        0.7408210000000001        0        
C2        C        0.09375        0.62963        0.7408210000000001        0        
C3        C        0.0625        0.648148        0.7408210000000001        0        
C4        C        0.09375        0.592592        0.7408210000000001        0        
C1        C        0.125        0.018519        0.7408210000000001        0        
C2        C        0.15625        0.074075        0.7408210000000001        0        
C3        C        0.125        0.092592        0.7408210000000001        0        
C4        C        0.15625        0.037037        0.7408210000000001        0        
C1        C        0.125        0.12963        0.7408210000000001        0        
C2        C        0.15625        0.185185        0.7408210000000001        0        
C3        C        0.125        0.203703        0.7408210000000001        0        
C4        C        0.15625        0.148148        0.7408210000000001        0        
C1        C        0.125        0.24074099999999998        0.7408210000000001        0        
C2        C        0.15625        0.296297        0.7408210000000001        0        
C3        C        0.125        0.314815        0.7408210000000001        0        
C4        C        0.15625        0.259259        0.7408210000000001        0        
C1        C        0.125        0.351852        0.7408210000000001        0        
C2        C        0.15625        0.407408        0.7408210000000001        0        
C3        C        0.125        0.42592500000000005        0.7408210000000001        0        
C4        C        0.15625        0.37037        0.7408210000000001        0        
C1        C        0.125        0.46296300000000007        0.7408210000000001        0        
C2        C        0.15625        0.518519        0.7408210000000001        0        
C3        C        0.125        0.537037        0.7408210000000001        0        
C4        C        0.15625        0.481481        0.7408210000000001        0        
C1        C        0.125        0.574075        0.7408210000000001        0        
C2        C        0.15625        0.62963        0.7408210000000001        0        
C3        C        0.125        0.648148        0.7408210000000001        0        
C4        C        0.15625        0.592592        0.7408210000000001        0        
C1        C        0.1875        0.018519        0.7408210000000001        0        
C2        C        0.21875        0.074075        0.7408210000000001        0        
C3        C        0.1875        0.092592        0.7408210000000001        0        
C4        C        0.21875        0.037037        0.7408210000000001        0        
C1        C        0.1875        0.12963        0.7408210000000001        0        
C2        C        0.21875        0.185185        0.7408210000000001        0        
C3        C        0.1875        0.203703        0.7408210000000001        0        
C4        C        0.21875        0.148148        0.7408210000000001        0        
C1        C        0.1875        0.24074099999999998        0.7408210000000001        0        
C2        C        0.21875        0.296297        0.7408210000000001        0        
C3        C        0.1875        0.314815        0.7408210000000001        0        
C4        C        0.21875        0.259259        0.7408210000000001        0        
C1        C        0.1875        0.351852        0.7408210000000001        0        
C2        C        0.21875        0.407408        0.7408210000000001        0        
C3        C        0.1875        0.42592500000000005        0.7408210000000001        0        
C4        C        0.21875        0.37037        0.7408210000000001        0        
C1        C        0.1875        0.46296300000000007        0.7408210000000001        0        
C2        C        0.21875        0.518519        0.7408210000000001        0        
C3        C        0.1875        0.537037        0.7408210000000001        0        
C4        C        0.21875        0.481481        0.7408210000000001        0        
C1        C        0.1875        0.574075        0.7408210000000001        0        
C2        C        0.21875        0.62963        0.7408210000000001        0        
C3        C        0.1875        0.648148        0.7408210000000001        0        
C4        C        0.21875        0.592592        0.7408210000000001        0        
C1        C        0.25        0.018519        0.7408210000000001        0        
C2        C        0.28125        0.074075        0.7408210000000001        0        
C3        C        0.25        0.092592        0.7408210000000001        0        
C4        C        0.28125        0.037037        0.7408210000000001        0        
C1        C        0.25        0.12963        0.7408210000000001        0        
C2        C        0.28125        0.185185        0.7408210000000001        0        
C3        C        0.25        0.203703        0.7408210000000001        0        
C4        C        0.28125        0.148148        0.7408210000000001        0        
C1        C        0.25        0.24074099999999998        0.7408210000000001        0        
C2        C        0.28125        0.296297        0.7408210000000001        0        
C3        C        0.25        0.314815        0.7408210000000001        0        
C4        C        0.28125        0.259259        0.7408210000000001        0        
C1        C        0.25        0.351852        0.7408210000000001        0        
C2        C        0.28125        0.407408        0.7408210000000001        0        
C3        C        0.25        0.42592500000000005        0.7408210000000001        0        
C4        C        0.28125        0.37037        0.7408210000000001        0        
C1        C        0.25        0.46296300000000007        0.7408210000000001        0        
C2        C        0.28125        0.518519        0.7408210000000001        0        
C3        C        0.25        0.537037        0.7408210000000001        0        
C4        C        0.28125        0.481481        0.7408210000000001        0        
C1        C        0.25        0.574075        0.7408210000000001        0        
C2        C        0.28125        0.62963        0.7408210000000001        0        
C3        C        0.25        0.648148        0.7408210000000001        0        
C4        C        0.28125        0.592592        0.7408210000000001        0        
C1        C        0.3125        0.018519        0.7408210000000001        0        
C2        C        0.34375        0.074075        0.7408210000000001        0        
C3        C        0.3125        0.092592        0.7408210000000001        0        
C4        C        0.34375        0.037037        0.7408210000000001        0        
C1        C        0.3125        0.12963        0.7408210000000001        0        
C2        C        0.34375        0.185185        0.7408210000000001        0        
C3        C        0.3125        0.203703        0.7408210000000001        0        
C4        C        0.34375        0.148148        0.7408210000000001        0        
C1        C        0.3125        0.24074099999999998        0.7408210000000001        0        
C2        C        0.34375        0.296297        0.7408210000000001        0        
C3        C        0.3125        0.314815        0.7408210000000001        0        
C4        C        0.34375        0.259259        0.7408210000000001        0        
C1        C        0.3125        0.351852        0.7408210000000001        0        
C2        C        0.34375        0.407408        0.7408210000000001        0        
C3        C        0.3125        0.42592500000000005        0.7408210000000001        0        
C4        C        0.34375        0.37037        0.7408210000000001        0        
C1        C        0.3125        0.46296300000000007        0.7408210000000001        0        
C2        C        0.34375        0.518519        0.7408210000000001        0        
C3        C        0.3125        0.537037        0.7408210000000001        0        
C4        C        0.34375        0.481481        0.7408210000000001        0        
C1        C        0.3125        0.574075        0.7408210000000001        0        
C2        C        0.34375        0.62963        0.7408210000000001        0        
C3        C        0.3125        0.648148        0.7408210000000001        0        
C4        C        0.34375        0.592592        0.7408210000000001        0        
C1        C        0.375        0.018519        0.7408210000000001        0        
C2        C        0.40625        0.074075        0.7408210000000001        0        
C3        C        0.375        0.092592        0.7408210000000001        0        
C4        C        0.40625        0.037037        0.7408210000000001        0        
C1        C        0.375        0.12963        0.7408210000000001        0        
C2        C        0.40625        0.185185        0.7408210000000001        0        
C3        C        0.375        0.203703        0.7408210000000001        0        
C4        C        0.40625        0.148148        0.7408210000000001        0        
C1        C        0.375        0.24074099999999998        0.7408210000000001        0        
C2        C        0.40625        0.296297        0.7408210000000001        0        
C3        C        0.375        0.314815        0.7408210000000001        0        
C4        C        0.40625        0.259259        0.7408210000000001        0        
C1        C        0.375        0.351852        0.7408210000000001        0        
C2        C        0.40625        0.407408        0.7408210000000001        0        
C3        C        0.375        0.42592500000000005        0.7408210000000001        0        
C4        C        0.40625        0.37037        0.7408210000000001        0        
C1        C        0.375        0.46296300000000007        0.7408210000000001        0        
C2        C        0.40625        0.518519        0.7408210000000001        0        
C3        C        0.375        0.537037        0.7408210000000001        0        
C4        C        0.40625        0.481481        0.7408210000000001        0        
C1        C        0.375        0.574075        0.7408210000000001        0        
C2        C        0.40625        0.62963        0.7408210000000001        0        
C3        C        0.375        0.648148        0.7408210000000001        0        
C4        C        0.40625        0.592592        0.7408210000000001        0        
C1        C        0.4375        0.018519        0.7408210000000001        0        
C2        C        0.46875        0.074075        0.7408210000000001        0        
C3        C        0.4375        0.092592        0.7408210000000001        0        
C4        C        0.46875        0.037037        0.7408210000000001        0        
C1        C        0.4375        0.12963        0.7408210000000001        0        
C2        C        0.46875        0.185185        0.7408210000000001        0        
C3        C        0.4375        0.203703        0.7408210000000001        0        
C4        C        0.46875        0.148148        0.7408210000000001        0        
C1        C        0.4375        0.24074099999999998        0.7408210000000001        0        
C2        C        0.46875        0.296297        0.7408210000000001        0        
C3        C        0.4375        0.314815        0.7408210000000001        0        
C4        C        0.46875        0.259259        0.7408210000000001        0        
C1        C        0.4375        0.351852        0.7408210000000001        0        
C2        C        0.46875        0.407408        0.7408210000000001        0        
C3        C        0.4375        0.42592500000000005        0.7408210000000001        0        
C4        C        0.46875        0.37037        0.7408210000000001        0        
C1        C        0.4375        0.46296300000000007        0.7408210000000001        0        
C2        C        0.46875        0.518519        0.7408210000000001        0        
C3        C        0.4375        0.537037        0.7408210000000001        0        
C4        C        0.46875        0.481481        0.7408210000000001        0        
C1        C        0.4375        0.574075        0.7408210000000001        0        
C2        C        0.46875        0.62963        0.7408210000000001        0        
C3        C        0.4375        0.648148        0.7408210000000001        0        
C4        C        0.46875        0.592592        0.7408210000000001        0        
C1        C        0.5        0.018519        0.7408210000000001        0        
C2        C        0.53125        0.074075        0.7408210000000001        0        
C3        C        0.5        0.092592        0.7408210000000001        0        
C4        C        0.53125        0.037037        0.7408210000000001        0        
C1        C        0.5        0.12963        0.7408210000000001        0        
C2        C        0.53125        0.185185        0.7408210000000001        0        
C3        C        0.5        0.203703        0.7408210000000001        0        
C4        C        0.53125        0.148148        0.7408210000000001        0        
C1        C        0.5        0.24074099999999998        0.7408210000000001        0        
C2        C        0.53125        0.296297        0.7408210000000001        0        
C3        C        0.5        0.314815        0.7408210000000001        0        
C4        C        0.53125        0.259259        0.7408210000000001        0        
C1        C        0.5        0.351852        0.7408210000000001        0        
C2        C        0.53125        0.407408        0.7408210000000001        0        
C3        C        0.5        0.42592500000000005        0.7408210000000001        0        
C4        C        0.53125        0.37037        0.7408210000000001        0        
C1        C        0.5        0.46296300000000007        0.7408210000000001        0        
C2        C        0.53125        0.518519        0.7408210000000001        0        
C3        C        0.5        0.537037        0.7408210000000001        0        
C4        C        0.53125        0.481481        0.7408210000000001        0        
C1        C        0.5        0.574075        0.7408210000000001        0        
C2        C        0.53125        0.62963        0.7408210000000001        0        
C3        C        0.5        0.648148        0.7408210000000001        0        
C4        C        0.53125        0.592592        0.7408210000000001        0        
C1        C        0.5625        0.018519        0.7408210000000001        0        
C2        C        0.59375        0.074075        0.7408210000000001        0        
C3        C        0.5625        0.092592        0.7408210000000001        0        
C4        C        0.59375        0.037037        0.7408210000000001        0        
C1        C        0.5625        0.12963        0.7408210000000001        0        
C2        C        0.59375        0.185185        0.7408210000000001        0        
C3        C        0.5625        0.203703        0.7408210000000001        0        
C4        C        0.59375        0.148148        0.7408210000000001        0        
C1        C        0.5625        0.24074099999999998        0.7408210000000001        0        
C2        C        0.59375        0.296297        0.7408210000000001        0        
C3        C        0.5625        0.314815        0.7408210000000001        0        
C4        C        0.59375        0.259259        0.7408210000000001        0        
C1        C        0.5625        0.351852        0.7408210000000001        0        
C2        C        0.59375        0.407408        0.7408210000000001        0        
C3        C        0.5625        0.42592500000000005        0.7408210000000001        0        
C4        C        0.59375        0.37037        0.7408210000000001        0        
C1        C        0.5625        0.46296300000000007        0.7408210000000001        0        
C2        C        0.59375        0.518519        0.7408210000000001        0        
C3        C        0.5625        0.537037        0.7408210000000001        0        
C4        C        0.59375        0.481481        0.7408210000000001        0        
C1        C        0.5625        0.574075        0.7408210000000001        0        
C2        C        0.59375        0.62963        0.7408210000000001        0        
C3        C        0.5625        0.648148        0.7408210000000001        0        
C4        C        0.59375        0.592592        0.7408210000000001        0        
C1        C        0.625        0.018519        0.7408210000000001        0        
C2        C        0.65625        0.074075        0.7408210000000001        0        
C3        C        0.625        0.092592        0.7408210000000001        0        
C4        C        0.65625        0.037037        0.7408210000000001        0        
C1        C        0.625        0.12963        0.7408210000000001        0        
C2        C        0.65625        0.185185        0.7408210000000001        0        
C3        C        0.625        0.203703        0.7408210000000001        0        
C4        C        0.65625        0.148148        0.7408210000000001        0        
C1        C        0.625        0.24074099999999998        0.7408210000000001        0        
C2        C        0.65625        0.296297        0.7408210000000001        0        
C3        C        0.625        0.314815        0.7408210000000001        0        
C4        C        0.65625        0.259259        0.7408210000000001        0        
C1        C        0.625        0.351852        0.7408210000000001        0        
C2        C        0.65625        0.407408        0.7408210000000001        0        
C3        C        0.625        0.42592500000000005        0.7408210000000001        0        
C4        C        0.65625        0.37037        0.7408210000000001        0        
C1        C        0.625        0.46296300000000007        0.7408210000000001        0        
C2        C        0.65625        0.518519        0.7408210000000001        0        
C3        C        0.625        0.537037        0.7408210000000001        0        
C4        C        0.65625        0.481481        0.7408210000000001        0        
C1        C        0.625        0.574075        0.7408210000000001        0        
C2        C        0.65625        0.62963        0.7408210000000001        0        
C3        C        0.625        0.648148        0.7408210000000001        0        
C4        C        0.65625        0.592592        0.7408210000000001        0        
C1        C        0.6875        0.018519        0.7408210000000001        0        
C2        C        0.71875        0.074075        0.7408210000000001        0        
C3        C        0.6875        0.092592        0.7408210000000001        0        
C4        C        0.71875        0.037037        0.7408210000000001        0        
C1        C        0.6875        0.12963        0.7408210000000001        0        
C2        C        0.71875        0.185185        0.7408210000000001        0        
C3        C        0.6875        0.203703        0.7408210000000001        0        
C4        C        0.71875        0.148148        0.7408210000000001        0        
C1        C        0.6875        0.24074099999999998        0.7408210000000001        0        
C2        C        0.71875        0.296297        0.7408210000000001        0        
C3        C        0.6875        0.314815        0.7408210000000001        0        
C4        C        0.71875        0.259259        0.7408210000000001        0        
C1        C        0.6875        0.351852        0.7408210000000001        0        
C2        C        0.71875        0.407408        0.7408210000000001        0        
C3        C        0.6875        0.42592500000000005        0.7408210000000001        0        
C4        C        0.71875        0.37037        0.7408210000000001        0        
C1        C        0.6875        0.46296300000000007        0.7408210000000001        0        
C2        C        0.71875        0.518519        0.7408210000000001        0        
C3        C        0.6875        0.537037        0.7408210000000001        0        
C4        C        0.71875        0.481481        0.7408210000000001        0        
C1        C        0.6875        0.574075        0.7408210000000001        0        
C2        C        0.71875        0.62963        0.7408210000000001        0        
C3        C        0.6875        0.648148        0.7408210000000001        0        
C4        C        0.71875        0.592592        0.7408210000000001        0        
C1        C        0.75        0.018519        0.7408210000000001        0        
C2        C        0.78125        0.074075        0.7408210000000001        0        
C3        C        0.75        0.092592        0.7408210000000001        0        
C4        C        0.78125        0.037037        0.7408210000000001        0        
C1        C        0.75        0.12963        0.7408210000000001        0        
C2        C        0.78125        0.185185        0.7408210000000001        0        
C3        C        0.75        0.203703        0.7408210000000001        0        
C4        C        0.78125        0.148148        0.7408210000000001        0        
C1        C        0.75        0.24074099999999998        0.7408210000000001        0        
C2        C        0.78125        0.296297        0.7408210000000001        0        
C3        C        0.75        0.314815        0.7408210000000001        0        
C4        C        0.78125        0.259259        0.7408210000000001        0        
C1        C        0.75        0.351852        0.7408210000000001        0        
C2        C        0.78125        0.407408        0.7408210000000001        0        
C3        C        0.75        0.42592500000000005        0.7408210000000001        0        
C4        C        0.78125        0.37037        0.7408210000000001        0        
C1        C        0.75        0.46296300000000007        0.7408210000000001        0        
C2        C        0.78125        0.518519        0.7408210000000001        0        
C3        C        0.75        0.537037        0.7408210000000001        0        
C4        C        0.78125        0.481481        0.7408210000000001        0        
C1        C        0.75        0.574075        0.7408210000000001        0        
C2        C        0.78125        0.62963        0.7408210000000001        0        
C3        C        0.75        0.648148        0.7408210000000001        0        
C4        C        0.78125        0.592592        0.7408210000000001        0        
C1        C        0.8125        0.018519        0.7408210000000001        0        
C2        C        0.84375        0.074075        0.7408210000000001        0        
C3        C        0.8125        0.092592        0.7408210000000001        0        
C4        C        0.84375        0.037037        0.7408210000000001        0        
C1        C        0.8125        0.12963        0.7408210000000001        0        
C2        C        0.84375        0.185185        0.7408210000000001        0        
C3        C        0.8125        0.203703        0.7408210000000001        0        
C4        C        0.84375        0.148148        0.7408210000000001        0        
C1        C        0.8125        0.24074099999999998        0.7408210000000001        0        
C2        C        0.84375        0.296297        0.7408210000000001        0        
C3        C        0.8125        0.314815        0.7408210000000001        0        
C4        C        0.84375        0.259259        0.7408210000000001        0        
C1        C        0.8125        0.351852        0.7408210000000001        0        
C2        C        0.84375        0.407408        0.7408210000000001        0        
C3        C        0.8125        0.42592500000000005        0.7408210000000001        0        
C4        C        0.84375        0.37037        0.7408210000000001        0        
C1        C        0.8125        0.46296300000000007        0.7408210000000001        0        
C2        C        0.84375        0.518519        0.7408210000000001        0        
C3        C        0.8125        0.537037        0.7408210000000001        0        
C4        C        0.84375        0.481481        0.7408210000000001        0        
C1        C        0.8125        0.574075        0.7408210000000001        0        
C2        C        0.84375        0.62963        0.7408210000000001        0        
C3        C        0.8125        0.648148        0.7408210000000001        0        
C4        C        0.84375        0.592592        0.7408210000000001        0        
C1        C        0.875        0.018519        0.7408210000000001        0        
C2        C        0.9062500000000001        0.074075        0.7408210000000001        0        
C3        C        0.875        0.092592        0.7408210000000001        0        
C4        C        0.9062500000000001        0.037037        0.7408210000000001        0        
C1        C        0.875        0.12963        0.7408210000000001        0        
C2        C        0.9062500000000001        0.185185        0.7408210000000001        0        
C3        C        0.875        0.203703        0.7408210000000001        0        
C4        C        0.9062500000000001        0.148148        0.7408210000000001        0        
C1        C        0.875        0.24074099999999998        0.7408210000000001        0        
C2        C        0.9062500000000001        0.296297        0.7408210000000001        0        
C3        C        0.875        0.314815        0.7408210000000001        0        
C4        C        0.9062500000000001        0.259259        0.7408210000000001        0        
C1        C        0.875        0.351852        0.7408210000000001        0        
C2        C        0.9062500000000001        0.407408        0.7408210000000001        0        
C3        C        0.875        0.42592500000000005        0.7408210000000001        0        
C4        C        0.9062500000000001        0.37037        0.7408210000000001        0        
C1        C        0.875        0.46296300000000007        0.7408210000000001        0        
C2        C        0.9062500000000001        0.518519        0.7408210000000001        0        
C3        C        0.875        0.537037        0.7408210000000001        0        
C4        C        0.9062500000000001        0.481481        0.7408210000000001        0        
C1        C        0.875        0.574075        0.7408210000000001        0        
C2        C        0.9062500000000001        0.62963        0.7408210000000001        0        
C3        C        0.875        0.648148        0.7408210000000001        0        
C4        C        0.9062500000000001        0.592592        0.7408210000000001        0        
C1        C        0.9375        0.018519        0.7408210000000001        0        
C2        C        0.9687500000000001        0.074075        0.7408210000000001        0        
C3        C        0.9375        0.092592        0.7408210000000001        0        
C4        C        0.9687500000000001        0.037037        0.7408210000000001        0        
C1        C        0.9375        0.12963        0.7408210000000001        0        
C2        C        0.9687500000000001        0.185185        0.7408210000000001        0        
C3        C        0.9375        0.203703        0.7408210000000001        0        
C4        C        0.9687500000000001        0.148148        0.7408210000000001        0        
C1        C        0.9375        0.24074099999999998        0.7408210000000001        0        
C2        C        0.9687500000000001        0.296297        0.7408210000000001        0        
C3        C        0.9375        0.314815        0.7408210000000001        0        
C4        C        0.9687500000000001        0.259259        0.7408210000000001        0        
C1        C        0.9375        0.351852        0.7408210000000001        0        
C2        C        0.9687500000000001        0.407408        0.7408210000000001        0        
C3        C        0.9375        0.42592500000000005        0.7408210000000001        0        
C4        C        0.9687500000000001        0.37037        0.7408210000000001        0        
C1        C        0.9375        0.46296300000000007        0.7408210000000001        0        
C2        C        0.9687500000000001        0.518519        0.7408210000000001        0        
C3        C        0.9375        0.537037        0.7408210000000001        0        
C4        C        0.9687500000000001        0.481481        0.7408210000000001        0        
C1        C        0.9375        0.574075        0.7408210000000001        0        
C2        C        0.9687500000000001        0.62963        0.7408210000000001        0        
C3        C        0.9375        0.648148        0.7408210000000001        0        
C4        C        0.9687500000000001        0.592592        0.7408210000000001        0        
C1        C        0.0        0.685186        0.7408210000000001        0        
C1        C        0.0625        0.685186        0.7408210000000001        0        
C1        C        0.125        0.685186        0.7408210000000001        0        
C1        C        0.1875        0.685186        0.7408210000000001        0        
C1        C        0.25        0.685186        0.7408210000000001        0        
C1        C        0.3125        0.685186        0.7408210000000001        0        
C1        C        0.375        0.685186        0.7408210000000001        0        
C1        C        0.4375        0.685186        0.7408210000000001        0        
C1        C        0.5        0.685186        0.7408210000000001        0        
C1        C        0.5625        0.685186        0.7408210000000001        0        
C1        C        0.625        0.685186        0.7408210000000001        0        
C1        C        0.6875        0.685186        0.7408210000000001        0        
C1        C        0.75        0.685186        0.7408210000000001        0        
C1        C        0.8125        0.685186        0.7408210000000001        0        
C1        C        0.875        0.685186        0.7408210000000001        0        
C1        C        0.9375        0.685186        0.7408210000000001        0        
C2        C        0.03125        0.740741        0.7408210000000001        0        
C2        C        0.09375        0.740741        0.7408210000000001        0        
C2        C        0.15625        0.740741        0.7408210000000001        0        
C2        C        0.21875        0.740741        0.7408210000000001        0        
C2        C        0.28125        0.740741        0.7408210000000001        0        
C2        C        0.34375        0.740741        0.7408210000000001        0        
C2        C        0.40625        0.740741        0.7408210000000001        0        
C2        C        0.46875        0.740741        0.7408210000000001        0        
C2        C        0.53125        0.740741        0.7408210000000001        0        
C2        C        0.59375        0.740741        0.7408210000000001        0        
C2        C        0.65625        0.740741        0.7408210000000001        0        
C2        C        0.71875        0.740741        0.7408210000000001        0        
C2        C        0.78125        0.740741        0.7408210000000001        0        
C2        C        0.84375        0.740741        0.7408210000000001        0        
C2        C        0.9062500000000001        0.740741        0.7408210000000001        0        
C2        C        0.9687500000000001        0.740741        0.7408210000000001        0        
C3        C        0.0        0.759259        0.7408210000000001        0        
C3        C        0.0625        0.759259        0.7408210000000001        0        
C3        C        0.125        0.759259        0.7408210000000001        0        
C3        C        0.1875        0.759259        0.7408210000000001        0        
C3        C        0.25        0.759259        0.7408210000000001        0        
C3        C        0.3125        0.759259        0.7408210000000001        0        
C3        C        0.375        0.759259        0.7408210000000001        0        
C3        C        0.4375        0.759259        0.7408210000000001        0        
C3        C        0.5        0.759259        0.7408210000000001        0        
C3        C        0.5625        0.759259        0.7408210000000001        0        
C3        C        0.625        0.759259        0.7408210000000001        0        
C3        C        0.6875        0.759259        0.7408210000000001        0        
C3        C        0.75        0.759259        0.7408210000000001        0        
C3        C        0.8125        0.759259        0.7408210000000001        0        
C3        C        0.875        0.759259        0.7408210000000001        0        
C3        C        0.9375        0.759259        0.7408210000000001        0        
C4        C        0.03125        0.703703        0.7408210000000001        0        
C4        C        0.09375        0.703703        0.7408210000000001        0        
C4        C        0.15625        0.703703        0.7408210000000001        0        
C4        C        0.21875        0.703703        0.7408210000000001        0        
C4        C        0.28125        0.703703        0.7408210000000001        0        
C4        C        0.34375        0.703703        0.7408210000000001        0        
C4        C        0.40625        0.703703        0.7408210000000001        0        
C4        C        0.46875        0.703703        0.7408210000000001        0        
C4        C        0.53125        0.703703        0.7408210000000001        0        
C4        C        0.59375        0.703703        0.7408210000000001        0        
C4        C        0.65625        0.703703        0.7408210000000001        0        
C4        C        0.71875        0.703703        0.7408210000000001        0        
C4        C        0.78125        0.703703        0.7408210000000001        0        
C4        C        0.84375        0.703703        0.7408210000000001        0        
C4        C        0.9062500000000001        0.703703        0.7408210000000001        0        
C4        C        0.9687500000000001        0.703703        0.7408210000000001        0        
C1        C        0.0        0.796297        0.7408210000000001        0        
C1        C        0.0625        0.796297        0.7408210000000001        0        
C1        C        0.125        0.796297        0.7408210000000001        0        
C1        C        0.1875        0.796297        0.7408210000000001        0        
C1        C        0.25        0.796297        0.7408210000000001        0        
C1        C        0.3125        0.796297        0.7408210000000001        0        
C1        C        0.375        0.796297        0.7408210000000001        0        
C1        C        0.4375        0.796297        0.7408210000000001        0        
C1        C        0.5        0.796297        0.7408210000000001        0        
C1        C        0.5625        0.796297        0.7408210000000001        0        
C1        C        0.625        0.796297        0.7408210000000001        0        
C1        C        0.6875        0.796297        0.7408210000000001        0        
C1        C        0.75        0.796297        0.7408210000000001        0        
C1        C        0.8125        0.796297        0.7408210000000001        0        
C1        C        0.875        0.796297        0.7408210000000001        0        
C1        C        0.9375        0.796297        0.7408210000000001        0        
C2        C        0.03125        0.851852        0.7408210000000001        0        
C2        C        0.09375        0.851852        0.7408210000000001        0        
C2        C        0.15625        0.851852        0.7408210000000001        0        
C2        C        0.21875        0.851852        0.7408210000000001        0        
C2        C        0.28125        0.851852        0.7408210000000001        0        
C2        C        0.34375        0.851852        0.7408210000000001        0        
C2        C        0.40625        0.851852        0.7408210000000001        0        
C2        C        0.46875        0.851852        0.7408210000000001        0        
C2        C        0.53125        0.851852        0.7408210000000001        0        
C2        C        0.59375        0.851852        0.7408210000000001        0        
C2        C        0.65625        0.851852        0.7408210000000001        0        
C2        C        0.71875        0.851852        0.7408210000000001        0        
C2        C        0.78125        0.851852        0.7408210000000001        0        
C2        C        0.84375        0.851852        0.7408210000000001        0        
C2        C        0.9062500000000001        0.851852        0.7408210000000001        0        
C2        C        0.9687500000000001        0.851852        0.7408210000000001        0        
C3        C        0.0        0.87037        0.7408210000000001        0        
C3        C        0.0625        0.87037        0.7408210000000001        0        
C3        C        0.125        0.87037        0.7408210000000001        0        
C3        C        0.1875        0.87037        0.7408210000000001        0        
C3        C        0.25        0.87037        0.7408210000000001        0        
C3        C        0.3125        0.87037        0.7408210000000001        0        
C3        C        0.375        0.87037        0.7408210000000001        0        
C3        C        0.4375        0.87037        0.7408210000000001        0        
C3        C        0.5        0.87037        0.7408210000000001        0        
C3        C        0.5625        0.87037        0.7408210000000001        0        
C3        C        0.625        0.87037        0.7408210000000001        0        
C3        C        0.6875        0.87037        0.7408210000000001        0        
C3        C        0.75        0.87037        0.7408210000000001        0        
C3        C        0.8125        0.87037        0.7408210000000001        0        
C3        C        0.875        0.87037        0.7408210000000001        0        
C3        C        0.9375        0.87037        0.7408210000000001        0        
C4        C        0.03125        0.814814        0.7408210000000001        0        
C4        C        0.09375        0.814814        0.7408210000000001        0        
C4        C        0.15625        0.814814        0.7408210000000001        0        
C4        C        0.21875        0.814814        0.7408210000000001        0        
C4        C        0.28125        0.814814        0.7408210000000001        0        
C4        C        0.34375        0.814814        0.7408210000000001        0        
C4        C        0.40625        0.814814        0.7408210000000001        0        
C4        C        0.46875        0.814814        0.7408210000000001        0        
C4        C        0.53125        0.814814        0.7408210000000001        0        
C4        C        0.59375        0.814814        0.7408210000000001        0        
C4        C        0.65625        0.814814        0.7408210000000001        0        
C4        C        0.71875        0.814814        0.7408210000000001        0        
C4        C        0.78125        0.814814        0.7408210000000001        0        
C4        C        0.84375        0.814814        0.7408210000000001        0        
C4        C        0.9062500000000001        0.814814        0.7408210000000001        0        
C4        C        0.9687500000000001        0.814814        0.7408210000000001        0        
C1        C        0.0        0.907408        0.7408210000000001        0        
C1        C        0.0625        0.907408        0.7408210000000001        0        
C1        C        0.125        0.907408        0.7408210000000001        0        
C1        C        0.1875        0.907408        0.7408210000000001        0        
C1        C        0.25        0.907408        0.7408210000000001        0        
C1        C        0.3125        0.907408        0.7408210000000001        0        
C1        C        0.375        0.907408        0.7408210000000001        0        
C1        C        0.4375        0.907408        0.7408210000000001        0        
C1        C        0.5        0.907408        0.7408210000000001        0        
C1        C        0.5625        0.907408        0.7408210000000001        0        
C1        C        0.625        0.907408        0.7408210000000001        0        
C1        C        0.6875        0.907408        0.7408210000000001        0        
C1        C        0.75        0.907408        0.7408210000000001        0        
C1        C        0.8125        0.907408        0.7408210000000001        0        
C1        C        0.875        0.907408        0.7408210000000001        0        
C1        C        0.9375        0.907408        0.7408210000000001        0        
C2        C        0.03125        0.962963        0.7408210000000001        0        
C2        C        0.09375        0.962963        0.7408210000000001        0        
C2        C        0.15625        0.962963        0.7408210000000001        0        
C2        C        0.21875        0.962963        0.7408210000000001        0        
C2        C        0.28125        0.962963        0.7408210000000001        0        
C2        C        0.34375        0.962963        0.7408210000000001        0        
C2        C        0.40625        0.962963        0.7408210000000001        0        
C2        C        0.46875        0.962963        0.7408210000000001        0        
C2        C        0.53125        0.962963        0.7408210000000001        0        
C2        C        0.59375        0.962963        0.7408210000000001        0        
C2        C        0.65625        0.962963        0.7408210000000001        0        
C2        C        0.71875        0.962963        0.7408210000000001        0        
C2        C        0.78125        0.962963        0.7408210000000001        0        
C2        C        0.84375        0.962963        0.7408210000000001        0        
C2        C        0.9062500000000001        0.962963        0.7408210000000001        0        
C2        C        0.9687500000000001        0.962963        0.7408210000000001        0        
C3        C        0.0        0.9814809999999999        0.7408210000000001        0        
C3        C        0.0625        0.9814809999999999        0.7408210000000001        0        
C3        C        0.125        0.9814809999999999        0.7408210000000001        0        
C3        C        0.1875        0.9814809999999999        0.7408210000000001        0        
C3        C        0.25        0.9814809999999999        0.7408210000000001        0        
C3        C        0.3125        0.9814809999999999        0.7408210000000001        0        
C3        C        0.375        0.9814809999999999        0.7408210000000001        0        
C3        C        0.4375        0.9814809999999999        0.7408210000000001        0        
C3        C        0.5        0.9814809999999999        0.7408210000000001        0        
C3        C        0.5625        0.9814809999999999        0.7408210000000001        0        
C3        C        0.625        0.9814809999999999        0.7408210000000001        0        
C3        C        0.6875        0.9814809999999999        0.7408210000000001        0        
C3        C        0.75        0.9814809999999999        0.7408210000000001        0        
C3        C        0.8125        0.9814809999999999        0.7408210000000001        0        
C3        C        0.875        0.9814809999999999        0.7408210000000001        0        
C3        C        0.9375        0.9814809999999999        0.7408210000000001        0        
C4        C        0.03125        0.925925        0.7408210000000001        0        
C4        C        0.09375        0.925925        0.7408210000000001        0        
C4        C        0.15625        0.925925        0.7408210000000001        0        
C4        C        0.21875        0.925925        0.7408210000000001        0        
C4        C        0.28125        0.925925        0.7408210000000001        0        
C4        C        0.34375        0.925925        0.7408210000000001        0        
C4        C        0.40625        0.925925        0.7408210000000001        0        
C4        C        0.46875        0.925925        0.7408210000000001        0        
C4        C        0.53125        0.925925        0.7408210000000001        0        
C4        C        0.59375        0.925925        0.7408210000000001        0        
C4        C        0.65625        0.925925        0.7408210000000001        0        
C4        C        0.71875        0.925925        0.7408210000000001        0        
C4        C        0.78125        0.925925        0.7408210000000001        0        
C4        C        0.84375        0.925925        0.7408210000000001        0        
C4        C        0.9062500000000001        0.925925        0.7408210000000001        0        
C4        C        0.9687500000000001        0.925925        0.7408210000000001        0        
O_OH        O        0.0        0.018519        0.4348380129589633        -0.64        
O_OH        O        0.0        0.12963        0.4348380129589633        -0.64        
O_OH        O        0.0        0.24074099999999998        0.4348380129589633        -0.64        
O_OH        O        0.0        0.351852        0.4348380129589633        -0.64        
O_OH        O        0.0        0.46296300000000007        0.4348380129589633        -0.64        
O_OH        O        0.0        0.574075        0.4348380129589633        -0.64        
O_OH        O        0.125        0.018519        0.4348380129589633        -0.64        
O_OH        O        0.125        0.12963        0.4348380129589633        -0.64        
O_OH        O        0.125        0.24074099999999998        0.4348380129589633        -0.64        
O_OH        O        0.125        0.351852        0.4348380129589633        -0.64        
O_OH        O        0.125        0.46296300000000007        0.4348380129589633        -0.64        
O_OH        O        0.125        0.574075        0.4348380129589633        -0.64        
O_OH        O        0.25        0.018519        0.4348380129589633        -0.64        
O_OH        O        0.25        0.12963        0.4348380129589633        -0.64        
O_OH        O        0.25        0.24074099999999998        0.4348380129589633        -0.64        
O_OH        O        0.25        0.351852        0.4348380129589633        -0.64        
O_OH        O        0.25        0.46296300000000007        0.4348380129589633        -0.64        
O_OH        O        0.25        0.574075        0.4348380129589633        -0.64        
O_OH        O        0.375        0.018519        0.4348380129589633        -0.64        
O_OH        O        0.375        0.12963        0.4348380129589633        -0.64        
O_OH        O        0.375        0.24074099999999998        0.4348380129589633        -0.64        
O_OH        O        0.375        0.351852        0.4348380129589633        -0.64        
O_OH        O        0.375        0.46296300000000007        0.4348380129589633        -0.64        
O_OH        O        0.375        0.574075        0.4348380129589633        -0.64        
O_OH        O        0.5        0.018519        0.4348380129589633        -0.64        
O_OH        O        0.5        0.12963        0.4348380129589633        -0.64        
O_OH        O        0.5        0.24074099999999998        0.4348380129589633        -0.64        
O_OH        O        0.5        0.351852        0.4348380129589633        -0.64        
O_OH        O        0.5        0.46296300000000007        0.4348380129589633        -0.64        
O_OH        O        0.5        0.574075        0.4348380129589633        -0.64        
O_OH        O        0.625        0.018519        0.4348380129589633        -0.64        
O_OH        O        0.625        0.12963        0.4348380129589633        -0.64        
O_OH        O        0.625        0.24074099999999998        0.4348380129589633        -0.64        
O_OH        O        0.625        0.351852        0.4348380129589633        -0.64        
O_OH        O        0.625        0.46296300000000007        0.4348380129589633        -0.64        
O_OH        O        0.625        0.574075        0.4348380129589633        -0.64        
O_OH        O        0.75        0.018519        0.4348380129589633        -0.64        
O_OH        O        0.75        0.12963        0.4348380129589633        -0.64        
O_OH        O        0.75        0.24074099999999998        0.4348380129589633        -0.64        
O_OH        O        0.75        0.351852        0.4348380129589633        -0.64        
O_OH        O        0.75        0.46296300000000007        0.4348380129589633        -0.64        
O_OH        O        0.75        0.574075        0.4348380129589633        -0.64        
O_OH        O        0.875        0.018519        0.4348380129589633        -0.64        
O_OH        O        0.875        0.12963        0.4348380129589633        -0.64        
O_OH        O        0.875        0.24074099999999998        0.4348380129589633        -0.64        
O_OH        O        0.875        0.351852        0.4348380129589633        -0.64        
O_OH        O        0.875        0.46296300000000007        0.4348380129589633        -0.64        
O_OH        O        0.875        0.574075        0.4348380129589633        -0.64        
O_OH        O        0.0        0.685186        0.4348380129589633        -0.64        
O_OH        O        0.125        0.685186        0.4348380129589633        -0.64        
O_OH        O        0.25        0.685186        0.4348380129589633        -0.64        
O_OH        O        0.375        0.685186        0.4348380129589633        -0.64        
O_OH        O        0.5        0.685186        0.4348380129589633        -0.64        
O_OH        O        0.625        0.685186        0.4348380129589633        -0.64        
O_OH        O        0.75        0.685186        0.4348380129589633        -0.64        
O_OH        O        0.875        0.685186        0.4348380129589633        -0.64        
O_OH        O        0.0        0.796297        0.4348380129589633        -0.64        
O_OH        O        0.125        0.796297        0.4348380129589633        -0.64        
O_OH        O        0.25        0.796297        0.4348380129589633        -0.64        
O_OH        O        0.375        0.796297        0.4348380129589633        -0.64        
O_OH        O        0.5        0.796297        0.4348380129589633        -0.64        
O_OH        O        0.625        0.796297        0.4348380129589633        -0.64        
O_OH        O        0.75        0.796297        0.4348380129589633        -0.64        
O_OH        O        0.875        0.796297        0.4348380129589633        -0.64        
O_OH        O        0.0        0.907408        0.4348380129589633        -0.64        
O_OH        O        0.125        0.907408        0.4348380129589633        -0.64        
O_OH        O        0.25        0.907408        0.4348380129589633        -0.64        
O_OH        O        0.375        0.907408        0.4348380129589633        -0.64        
O_OH        O        0.5        0.907408        0.4348380129589633        -0.64        
O_OH        O        0.625        0.907408        0.4348380129589633        -0.64        
O_OH        O        0.75        0.907408        0.4348380129589633        -0.64        
O_OH        O        0.875        0.907408        0.4348380129589633        -0.64        
O_OH        O        0.0        0.018519        0.5651619870410368        -0.64        
O_OH        O        0.0        0.12963        0.5651619870410368        -0.64        
O_OH        O        0.0        0.24074099999999998        0.5651619870410368        -0.64        
O_OH        O        0.0        0.351852        0.5651619870410368        -0.64        
O_OH        O        0.0        0.46296300000000007        0.5651619870410368        -0.64        
O_OH        O        0.0        0.574075        0.5651619870410368        -0.64        
O_OH        O        0.125        0.018519        0.5651619870410368        -0.64        
O_OH        O        0.125        0.12963        0.5651619870410368        -0.64        
O_OH        O        0.125        0.24074099999999998        0.5651619870410368        -0.64        
O_OH        O        0.125        0.351852        0.5651619870410368        -0.64        
O_OH        O        0.125        0.46296300000000007        0.5651619870410368        -0.64        
O_OH        O        0.125        0.574075        0.5651619870410368        -0.64        
O_OH        O        0.25        0.018519        0.5651619870410368        -0.64        
O_OH        O        0.25        0.12963        0.5651619870410368        -0.64        
O_OH        O        0.25        0.24074099999999998        0.5651619870410368        -0.64        
O_OH        O        0.25        0.351852        0.5651619870410368        -0.64        
O_OH        O        0.25        0.46296300000000007        0.5651619870410368        -0.64        
O_OH        O        0.25        0.574075        0.5651619870410368        -0.64        
O_OH        O        0.375        0.018519        0.5651619870410368        -0.64        
O_OH        O        0.375        0.12963        0.5651619870410368        -0.64        
O_OH        O        0.375        0.24074099999999998        0.5651619870410368        -0.64        
O_OH        O        0.375        0.351852        0.5651619870410368        -0.64        
O_OH        O        0.375        0.46296300000000007        0.5651619870410368        -0.64        
O_OH        O        0.375        0.574075        0.5651619870410368        -0.64        
O_OH        O        0.5        0.018519        0.5651619870410368        -0.64        
O_OH        O        0.5        0.12963        0.5651619870410368        -0.64        
O_OH        O        0.5        0.24074099999999998        0.5651619870410368        -0.64        
O_OH        O        0.5        0.351852        0.5651619870410368        -0.64        
O_OH        O        0.5        0.46296300000000007        0.5651619870410368        -0.64        
O_OH        O        0.5        0.574075        0.5651619870410368        -0.64        
O_OH        O        0.625        0.018519        0.5651619870410368        -0.64        
O_OH        O        0.625        0.12963        0.5651619870410368        -0.64        
O_OH        O        0.625        0.24074099999999998        0.5651619870410368        -0.64        
O_OH        O        0.625        0.351852        0.5651619870410368        -0.64        
O_OH        O        0.625        0.46296300000000007        0.5651619870410368        -0.64        
O_OH        O        0.625        0.574075        0.5651619870410368        -0.64        
O_OH        O        0.75        0.018519        0.5651619870410368        -0.64        
O_OH        O        0.75        0.12963        0.5651619870410368        -0.64        
O_OH        O        0.75        0.24074099999999998        0.5651619870410368        -0.64        
O_OH        O        0.75        0.351852        0.5651619870410368        -0.64        
O_OH        O        0.75        0.46296300000000007        0.5651619870410368        -0.64        
O_OH        O        0.75        0.574075        0.5651619870410368        -0.64        
O_OH        O        0.875        0.018519        0.5651619870410368        -0.64        
O_OH        O        0.875        0.12963        0.5651619870410368        -0.64        
O_OH        O        0.875        0.24074099999999998        0.5651619870410368        -0.64        
O_OH        O        0.875        0.351852        0.5651619870410368        -0.64        
O_OH        O        0.875        0.46296300000000007        0.5651619870410368        -0.64        
O_OH        O        0.875        0.574075        0.5651619870410368        -0.64        
O_OH        O        0.0        0.685186        0.5651619870410368        -0.64        
O_OH        O        0.125        0.685186        0.5651619870410368        -0.64        
O_OH        O        0.25        0.685186        0.5651619870410368        -0.64        
O_OH        O        0.375        0.685186        0.5651619870410368        -0.64        
O_OH        O        0.5        0.685186        0.5651619870410368        -0.64        
O_OH        O        0.625        0.685186        0.5651619870410368        -0.64        
O_OH        O        0.75        0.685186        0.5651619870410368        -0.64        
O_OH        O        0.875        0.685186        0.5651619870410368        -0.64        
O_OH        O        0.0        0.796297        0.5651619870410368        -0.64        
O_OH        O        0.125        0.796297        0.5651619870410368        -0.64        
O_OH        O        0.25        0.796297        0.5651619870410368        -0.64        
O_OH        O        0.375        0.796297        0.5651619870410368        -0.64        
O_OH        O        0.5        0.796297        0.5651619870410368        -0.64        
O_OH        O        0.625        0.796297        0.5651619870410368        -0.64        
O_OH        O        0.75        0.796297        0.5651619870410368        -0.64        
O_OH        O        0.875        0.796297        0.5651619870410368        -0.64        
O_OH        O        0.0        0.907408        0.5651619870410368        -0.64        
O_OH        O        0.125        0.907408        0.5651619870410368        -0.64        
O_OH        O        0.25        0.907408        0.5651619870410368        -0.64        
O_OH        O        0.375        0.907408        0.5651619870410368        -0.64        
O_OH        O        0.5        0.907408        0.5651619870410368        -0.64        
O_OH        O        0.625        0.907408        0.5651619870410368        -0.64        
O_OH        O        0.75        0.907408        0.5651619870410368        -0.64        
O_OH        O        0.875        0.907408        0.5651619870410368        -0.64        
H_OH        H        -0.022518917586403835        0.02247144907822828        0.44209933045356375        0.44        
H_OH        H        -0.01364020976453032        0.1484442947454725        0.44209933045356375        0.44        
H_OH        H        -0.022441712487683587        0.24513192199603787        0.44209933045356375        0.44        
H_OH        H        0.00882301075204572        0.37348580967259287        0.44209933045356375        0.44        
H_OH        H        -0.012418698476450406        0.4826486584425169        0.44209933045356375        0.44        
H_OH        H        0.02115274453003222        0.5829351179229714        0.44209933045356375        0.44        
H_OH        H        0.14784417301859404        0.01878687082506463        0.44209933045356375        0.44        
H_OH        H        0.1311764188290219        0.15221006665356912        0.44209933045356375        0.44        
H_OH        H        0.10876364581920975        0.2572404510482877        0.44209933045356375        0.44        
H_OH        H        0.10423188122380753        0.3616241474114187        0.44209933045356375        0.44        
H_OH        H        0.13355616299110734        0.48470947913223933        0.44209933045356375        0.44        
H_OH        H        0.10636910450733718        0.587648478469662        0.44209933045356375        0.44        
H_OH        H        0.2475819091174543        0.041840705197226866        0.44209933045356375        0.44        
H_OH        H        0.2617860998809254        0.14972135699757766        0.44209933045356375        0.44        
H_OH        H        0.2707426560512462        0.2505699791116519        0.44209933045356375        0.44        
H_OH        H        0.23793682885667325        0.371769289093565        0.44209933045356375        0.44        
H_OH        H        0.26419182343922415        0.48134226578957173        0.44209933045356375        0.44        
H_OH        H        0.24254233146522328        0.5962436467859652        0.44209933045356375        0.44        
H_OH        H        0.3705530206968816        0.04152383658212347        0.44209933045356375        0.44        
H_OH        H        0.3910314170758783        0.14633931737402342        0.44209933045356375        0.44        
H_OH        H        0.39770285872409694        0.24335924909849357        0.44209933045356375        0.44        
H_OH        H        0.3978348564354862        0.3525732990933843        0.44209933045356375        0.44        
H_OH        H        0.3766082048556833        0.48635826843551727        0.44209933045356375        0.44        
H_OH        H        0.3852872034513058        0.595016157123944        0.44209933045356375        0.44        
H_OH        H        0.5146610898516433        0.036505875837256584        0.44209933045356375        0.44        
H_OH        H        0.4771561129657475        0.12992244711964315        0.44209933045356375        0.44        
H_OH        H        0.5214239576767308        0.24888543010173156        0.44209933045356375        0.44        
H_OH        H        0.5075430499302052        0.3739901811244438        0.44209933045356375        0.44        
H_OH        H        0.504836920948251        0.4858847613100395        0.44209933045356375        0.44        
H_OH        H        0.49881919986015855        0.5974971025668983        0.44209933045356375        0.44        
H_OH        H        0.609664300968014        0.03590291627044911        0.44209933045356375        0.44        
H_OH        H        0.6442738626191474        0.14222181448154653        0.44209933045356375        0.44        
H_OH        H        0.6313389114679967        0.2632735567786807        0.44209933045356375        0.44        
H_OH        H        0.617877050512879        0.3741363542131559        0.44209933045356375        0.44        
H_OH        H        0.6035865596254505        0.4711365283988549        0.44209933045356375        0.44        
H_OH        H        0.6331861046222427        0.5959710958439355        0.44209933045356375        0.44        
H_OH        H        0.7466692767951907        0.041721855579098216        0.44209933045356375        0.44        
H_OH        H        0.727618109968811        0.13433172598595267        0.44209933045356375        0.44        
H_OH        H        0.7645090266438507        0.2588573616317291        0.44209933045356375        0.44        
H_OH        H        0.7279856783585864        0.3581213465285675        0.44209933045356375        0.44        
H_OH        H        0.7640199666999008        0.48148075370840887        0.44209933045356375        0.44        
H_OH        H        0.7311541963694187        0.587332112385503        0.44209933045356375        0.44        
H_OH        H        0.8921276501860401        0.034039675647485584        0.44209933045356375        0.44        
H_OH        H        0.8530498058171887        0.13613200318840238        0.44209933045356375        0.44        
H_OH        H        0.8955879921966926        0.2509069154795784        0.44209933045356375        0.44        
H_OH        H        0.8545262704554772        0.362258278037682        0.44209933045356375        0.44        
H_OH        H        0.8829910915692203        0.4849348881672275        0.44209933045356375        0.44        
H_OH        H        0.8625561130080616        0.5937438874054364        0.44209933045356375        0.44        
H_OH        H        -0.01533973490921818        0.7025661630515699        0.44209933045356375        0.44        
H_OH        H        0.12324727081122193        0.7085703250806507        0.44209933045356375        0.44        
H_OH        H        0.23067804158121258        0.6976998887288898        0.44209933045356375        0.44        
H_OH        H        0.3536113341942059        0.6934276104521775        0.44209933045356375        0.44        
H_OH        H        0.48751974053023356        0.7048305845252915        0.44209933045356375        0.44        
H_OH        H        0.6190217290301846        0.7078222030455499        0.44209933045356375        0.44        
H_OH        H        0.7715151513034931        0.6930730048889845        0.44209933045356375        0.44        
H_OH        H        0.8690740266791667        0.7078366913451952        0.44209933045356375        0.44        
H_OH        H        -0.01771776796537299        0.8111030732194933        0.44209933045356375        0.44        
H_OH        H        0.12055789477612944        0.8193028290056902        0.44209933045356375        0.44        
H_OH        H        0.25240663187011053        0.8196199543730999        0.44209933045356375        0.44        
H_OH        H        0.3864316269702738        0.8166030683582667        0.44209933045356375        0.44        
H_OH        H        0.5222918734890472        0.8014296816791461        0.44209933045356375        0.44        
H_OH        H        0.6075769673340993        0.8114672161599575        0.44209933045356375        0.44        
H_OH        H        0.7487576443509583        0.8197157465088162        0.44209933045356375        0.44        
H_OH        H        0.8960908485731853        0.8053112870808615        0.44209933045356375        0.44        
H_OH        H        -0.017133329258242        0.9229220681811061        0.44209933045356375        0.44        
H_OH        H        0.1329627771696612        0.9293907193261229        0.44209933045356375        0.44        
H_OH        H        0.2583232055636881        0.9292495552489907        0.44209933045356375        0.44        
H_OH        H        0.3530069739333771        0.913755629131652        0.44209933045356375        0.44        
H_OH        H        0.5069395314640047        0.9297532639532996        0.44209933045356375        0.44        
H_OH        H        0.6041003464171888        0.9168799904105127        0.44209933045356375        0.44        
H_OH        H        0.7609494619588056        0.9279922079561265        0.44209933045356375        0.44        
H_OH        H        0.8934074575891716        0.9212990505556172        0.44209933045356375        0.44        
H_OH        H        0.017812886853962952        0.03320429712323529        0.5579006695464364        0.44        
H_OH        H        -0.02077178949242349        0.1393939214791419        0.5579006695464364        0.44        
H_OH        H        0.02281972791719658        0.24185822762907647        0.5579006695464364        0.44        
H_OH        H        -0.012149584022146236        0.37171385547781094        0.5579006695464364        0.44        
H_OH        H        -0.021705216813595715        0.4702805980809787        0.5579006695464364        0.44        
H_OH        H        -0.020393981240584568        0.584645027068338        0.5579006695464364        0.44        
H_OH        H        0.11070217976148855        0.03681147889292156        0.5579006695464364        0.44        
H_OH        H        0.11255873020221656        0.1493006322358909        0.5579006695464364        0.44        
H_OH        H        0.10252934862965916        0.24497306889113604        0.5579006695464364        0.44        
H_OH        H        0.1478454304961171        0.351957846414342        0.5579006695464364        0.44        
H_OH        H        0.13734426517962647        0.482697936396167        0.5579006695464364        0.44        
H_OH        H        0.12348848876145457        0.5974770620009578        0.5579006695464364        0.44        
H_OH        H        0.2272317273559312        0.020447837337569635        0.5579006695464364        0.44        
H_OH        H        0.2271637602766448        0.13030356506909715        0.5579006695464364        0.44        
H_OH        H        0.22729263541204794        0.24331773906314696        0.5579006695464364        0.44        
H_OH        H        0.27279976829372143        0.35333787972889935        0.5579006695464364        0.44        
H_OH        H        0.2691947774809999        0.4756814951121191        0.5579006695464364        0.44        
H_OH        H        0.2657650518277543        0.5910493159180575        0.5579006695464364        0.44        
H_OH        H        0.36440029569603666        0.03929525968550706        0.5579006695464364        0.44        
H_OH        H        0.3523815216540682        0.1329293403648884        0.5579006695464364        0.44        
H_OH        H        0.3938197745017324        0.2540370253560374        0.5579006695464364        0.44        
H_OH        H        0.3712224825644377        0.37498261506826724        0.5579006695464364        0.44        
H_OH        H        0.3549626587493825        0.4742289813257482        0.5579006695464364        0.44        
H_OH        H        0.3948158647113704        0.5857465370404308        0.5579006695464364        0.44        
H_OH        H        0.5095711472023692        0.03981497205300884        0.5579006695464364        0.44        
H_OH        H        0.515739316690298        0.14662946715358618        0.5579006695464364        0.44        
H_OH        H        0.4988858853833006        0.2641665454025523        0.5579006695464364        0.44        
H_OH        H        0.483951238617021        0.3685437608228622        0.5579006695464364        0.44        
H_OH        H        0.5077613737540264        0.4850215038672155        0.5579006695464364        0.44        
H_OH        H        0.5027463527764063        0.5973583683159659        0.5579006695464364        0.44        
H_OH        H        0.630966063522489        0.04115859716125786        0.5579006695464364        0.44        
H_OH        H        0.638193095686254        0.14877737825933185        0.5579006695464364        0.44        
H_OH        H        0.604376209482473        0.25083015170316875        0.5579006695464364        0.44        
H_OH        H        0.637463850919692        0.37150756067530566        0.5579006695464364        0.44        
H_OH        H        0.644039665298894        0.4759248864749904        0.5579006695464364        0.44        
H_OH        H        0.6427615282627384        0.5888257122069473        0.5579006695464364        0.44        
H_OH        H        0.7319208622770976        0.032857285572073694        0.5579006695464364        0.44        
H_OH        H        0.7699746606461482        0.14101268560318292        0.5579006695464364        0.44        
H_OH        H        0.7625310026577897        0.2603515105121853        0.5579006695464364        0.44        
H_OH        H        0.7295464783286131        0.36230007477961074        0.5579006695464364        0.44        
H_OH        H        0.7693846949865777        0.4753742111939807        0.5579006695464364        0.44        
H_OH        H        0.7727842081218508        0.5757941205129772        0.5579006695464364        0.44        
H_OH        H        0.8739283179920462        0.041946631700835506        0.5579006695464364        0.44        
H_OH        H        0.8960397132396279        0.13876935917962585        0.5579006695464364        0.44        
H_OH        H        0.897636939241619        0.24390409135982827        0.5579006695464364        0.44        
H_OH        H        0.8880748211878412        0.3710846916002964        0.5579006695464364        0.44        
H_OH        H        0.8973310543703671        0.4679129283678629        0.5579006695464364        0.44        
H_OH        H        0.8912743464787038        0.5905349554705644        0.5579006695464364        0.44        
H_OH        H        0.016194530581111307        0.7017287141517589        0.5579006695464364        0.44        
H_OH        H        0.1337697076054306        0.7068426393444595        0.5579006695464364        0.44        
H_OH        H        0.22740473417079815        0.6886489117408855        0.5579006695464364        0.44        
H_OH        H        0.3917909518818118        0.7010896928478094        0.5579006695464364        0.44        
H_OH        H        0.514145547692354        0.7036028250709888        0.5579006695464364        0.44        
H_OH        H        0.6030886284795237        0.6918245749571957        0.5579006695464364        0.44        
H_OH        H        0.7631549159870658        0.7043610434308134        0.5579006695464364        0.44        
H_OH        H        0.8967168639440811        0.6924670872441828        0.5579006695464364        0.44        
H_OH        H        0.0013094434942240829        0.8197118940467228        0.5579006695464364        0.44        
H_OH        H        0.1257527047695988        0.8197377175802597        0.5579006695464364        0.44        
H_OH        H        0.23202042640953993        0.8107666286720463        0.5579006695464364        0.44        
H_OH        H        0.3590743238533803        0.8131125478955268        0.5579006695464364        0.44        
H_OH        H        0.5114712111913637        0.8165795279853905        0.5579006695464364        0.44        
H_OH        H        0.6216279432775653        0.8194935626802043        0.5579006695464364        0.44        
H_OH        H        0.7462004571428603        0.8194238127413365        0.5579006695464364        0.44        
H_OH        H        0.8977478596990364        0.7984648620909459        0.5579006695464364        0.44        
H_OH        H        0.009845453673847053        0.9285717701012037        0.5579006695464364        0.44        
H_OH        H        0.12801365423670272        0.9306564960753803        0.5579006695464364        0.44        
H_OH        H        0.2373737090664581        0.9269539888584012        0.5579006695464364        0.44        
H_OH        H        0.3801905945029921        0.9302480845774969        0.5579006695464364        0.44        
H_OH        H        0.5164473731519333        0.923685688608596        0.5579006695464364        0.44        
H_OH        H        0.6044343923491347        0.9176215551973884        0.5579006695464364        0.44        
H_OH        H        0.7635145708246419        0.9263176094466271        0.5579006695464364        0.44        
H_OH        H        0.8922964731999984        0.9227300903082152        0.5579006695464364        0.44        
