data_graphite_ortho

_audit_creation_method RASPA-1.0
_audit_creation_date 2012-2-3
_audit_author_name 'David Dubbeldam'

_cell_length_a    29.52    
_cell_length_b    38.34    
_cell_length_c    28.9    
_cell_angle_alpha 90
_cell_angle_beta  90
_cell_angle_gamma 90
_cell_volume      32708.93      

_symmetry_cell_setting          triclinic
_symmetry_space_group_name_Hall 'P 1'
_symmetry_space_group_name_H-M  'P 1'
_symmetry_Int_Tables_number     1

_symmetry_equiv_pos_as_xyz 'x,y,z'

loop_
_atom_site_label
_atom_site_type_symbol
_atom_site_fract_x
_atom_site_fract_y
_atom_site_fract_z
_atom_site_charge
C1        C        0.0        0.018519        0.0        0        
C2        C        0.041667        0.074075        0.0        0        
C3        C        0.0        0.092592        0.0        0        
C4        C        0.041667        0.037037        0.0        0        
C1        C        0.0        0.12963        0.0        0        
C2        C        0.041667        0.185185        0.0        0        
C3        C        0.0        0.203703        0.0        0        
C4        C        0.041667        0.148148        0.0        0        
C1        C        0.0        0.24074099999999998        0.0        0        
C2        C        0.041667        0.296297        0.0        0        
C3        C        0.0        0.314815        0.0        0        
C4        C        0.041667        0.259259        0.0        0        
C1        C        0.0        0.351852        0.0        0        
C2        C        0.041667        0.407408        0.0        0        
C3        C        0.0        0.42592500000000005        0.0        0        
C4        C        0.041667        0.37037        0.0        0        
C1        C        0.0        0.46296300000000007        0.0        0        
C2        C        0.041667        0.518519        0.0        0        
C3        C        0.0        0.537037        0.0        0        
C4        C        0.041667        0.481481        0.0        0        
C1        C        0.0        0.574075        0.0        0        
C2        C        0.041667        0.62963        0.0        0        
C3        C        0.0        0.648148        0.0        0        
C4        C        0.041667        0.592592        0.0        0        
C1        C        0.083333        0.018519        0.0        0        
C2        C        0.125        0.074075        0.0        0        
C3        C        0.083333        0.092592        0.0        0        
C4        C        0.125        0.037037        0.0        0        
C1        C        0.083333        0.12963        0.0        0        
C2        C        0.125        0.185185        0.0        0        
C3        C        0.083333        0.203703        0.0        0        
C4        C        0.125        0.148148        0.0        0        
C1        C        0.083333        0.24074099999999998        0.0        0        
C2        C        0.125        0.296297        0.0        0        
C3        C        0.083333        0.314815        0.0        0        
C4        C        0.125        0.259259        0.0        0        
C1        C        0.083333        0.351852        0.0        0        
C2        C        0.125        0.407408        0.0        0        
C3        C        0.083333        0.42592500000000005        0.0        0        
C4        C        0.125        0.37037        0.0        0        
C1        C        0.083333        0.46296300000000007        0.0        0        
C2        C        0.125        0.518519        0.0        0        
C3        C        0.083333        0.537037        0.0        0        
C4        C        0.125        0.481481        0.0        0        
C1        C        0.083333        0.574075        0.0        0        
C2        C        0.125        0.62963        0.0        0        
C3        C        0.083333        0.648148        0.0        0        
C4        C        0.125        0.592592        0.0        0        
C1        C        0.166667        0.018519        0.0        0        
C2        C        0.208333        0.074075        0.0        0        
C3        C        0.166667        0.092592        0.0        0        
C4        C        0.208333        0.037037        0.0        0        
C1        C        0.166667        0.12963        0.0        0        
C2        C        0.208333        0.185185        0.0        0        
C3        C        0.166667        0.203703        0.0        0        
C4        C        0.208333        0.148148        0.0        0        
C1        C        0.166667        0.24074099999999998        0.0        0        
C2        C        0.208333        0.296297        0.0        0        
C3        C        0.166667        0.314815        0.0        0        
C4        C        0.208333        0.259259        0.0        0        
C1        C        0.166667        0.351852        0.0        0        
C2        C        0.208333        0.407408        0.0        0        
C3        C        0.166667        0.42592500000000005        0.0        0        
C4        C        0.208333        0.37037        0.0        0        
C1        C        0.166667        0.46296300000000007        0.0        0        
C2        C        0.208333        0.518519        0.0        0        
C3        C        0.166667        0.537037        0.0        0        
C4        C        0.208333        0.481481        0.0        0        
C1        C        0.166667        0.574075        0.0        0        
C2        C        0.208333        0.62963        0.0        0        
C3        C        0.166667        0.648148        0.0        0        
C4        C        0.208333        0.592592        0.0        0        
C1        C        0.25        0.018519        0.0        0        
C2        C        0.291667        0.074075        0.0        0        
C3        C        0.25        0.092592        0.0        0        
C4        C        0.291667        0.037037        0.0        0        
C1        C        0.25        0.12963        0.0        0        
C2        C        0.291667        0.185185        0.0        0        
C3        C        0.25        0.203703        0.0        0        
C4        C        0.291667        0.148148        0.0        0        
C1        C        0.25        0.24074099999999998        0.0        0        
C2        C        0.291667        0.296297        0.0        0        
C3        C        0.25        0.314815        0.0        0        
C4        C        0.291667        0.259259        0.0        0        
C1        C        0.25        0.351852        0.0        0        
C2        C        0.291667        0.407408        0.0        0        
C3        C        0.25        0.42592500000000005        0.0        0        
C4        C        0.291667        0.37037        0.0        0        
C1        C        0.25        0.46296300000000007        0.0        0        
C2        C        0.291667        0.518519        0.0        0        
C3        C        0.25        0.537037        0.0        0        
C4        C        0.291667        0.481481        0.0        0        
C1        C        0.25        0.574075        0.0        0        
C2        C        0.291667        0.62963        0.0        0        
C3        C        0.25        0.648148        0.0        0        
C4        C        0.291667        0.592592        0.0        0        
C1        C        0.333333        0.018519        0.0        0        
C2        C        0.375        0.074075        0.0        0        
C3        C        0.333333        0.092592        0.0        0        
C4        C        0.375        0.037037        0.0        0        
C1        C        0.333333        0.12963        0.0        0        
C2        C        0.375        0.185185        0.0        0        
C3        C        0.333333        0.203703        0.0        0        
C4        C        0.375        0.148148        0.0        0        
C1        C        0.333333        0.24074099999999998        0.0        0        
C2        C        0.375        0.296297        0.0        0        
C3        C        0.333333        0.314815        0.0        0        
C4        C        0.375        0.259259        0.0        0        
C1        C        0.333333        0.351852        0.0        0        
C2        C        0.375        0.407408        0.0        0        
C3        C        0.333333        0.42592500000000005        0.0        0        
C4        C        0.375        0.37037        0.0        0        
C1        C        0.333333        0.46296300000000007        0.0        0        
C2        C        0.375        0.518519        0.0        0        
C3        C        0.333333        0.537037        0.0        0        
C4        C        0.375        0.481481        0.0        0        
C1        C        0.333333        0.574075        0.0        0        
C2        C        0.375        0.62963        0.0        0        
C3        C        0.333333        0.648148        0.0        0        
C4        C        0.375        0.592592        0.0        0        
C1        C        0.416667        0.018519        0.0        0        
C2        C        0.458333        0.074075        0.0        0        
C3        C        0.416667        0.092592        0.0        0        
C4        C        0.458333        0.037037        0.0        0        
C1        C        0.416667        0.12963        0.0        0        
C2        C        0.458333        0.185185        0.0        0        
C3        C        0.416667        0.203703        0.0        0        
C4        C        0.458333        0.148148        0.0        0        
C1        C        0.416667        0.24074099999999998        0.0        0        
C2        C        0.458333        0.296297        0.0        0        
C3        C        0.416667        0.314815        0.0        0        
C4        C        0.458333        0.259259        0.0        0        
C1        C        0.416667        0.351852        0.0        0        
C2        C        0.458333        0.407408        0.0        0        
C3        C        0.416667        0.42592500000000005        0.0        0        
C4        C        0.458333        0.37037        0.0        0        
C1        C        0.416667        0.46296300000000007        0.0        0        
C2        C        0.458333        0.518519        0.0        0        
C3        C        0.416667        0.537037        0.0        0        
C4        C        0.458333        0.481481        0.0        0        
C1        C        0.416667        0.574075        0.0        0        
C2        C        0.458333        0.62963        0.0        0        
C3        C        0.416667        0.648148        0.0        0        
C4        C        0.458333        0.592592        0.0        0        
C1        C        0.5        0.018519        0.0        0        
C2        C        0.541667        0.074075        0.0        0        
C3        C        0.5        0.092592        0.0        0        
C4        C        0.541667        0.037037        0.0        0        
C1        C        0.5        0.12963        0.0        0        
C2        C        0.541667        0.185185        0.0        0        
C3        C        0.5        0.203703        0.0        0        
C4        C        0.541667        0.148148        0.0        0        
C1        C        0.5        0.24074099999999998        0.0        0        
C2        C        0.541667        0.296297        0.0        0        
C3        C        0.5        0.314815        0.0        0        
C4        C        0.541667        0.259259        0.0        0        
C1        C        0.5        0.351852        0.0        0        
C2        C        0.541667        0.407408        0.0        0        
C3        C        0.5        0.42592500000000005        0.0        0        
C4        C        0.541667        0.37037        0.0        0        
C1        C        0.5        0.46296300000000007        0.0        0        
C2        C        0.541667        0.518519        0.0        0        
C3        C        0.5        0.537037        0.0        0        
C4        C        0.541667        0.481481        0.0        0        
C1        C        0.5        0.574075        0.0        0        
C2        C        0.541667        0.62963        0.0        0        
C3        C        0.5        0.648148        0.0        0        
C4        C        0.541667        0.592592        0.0        0        
C1        C        0.583333        0.018519        0.0        0        
C2        C        0.625        0.074075        0.0        0        
C3        C        0.583333        0.092592        0.0        0        
C4        C        0.625        0.037037        0.0        0        
C1        C        0.583333        0.12963        0.0        0        
C2        C        0.625        0.185185        0.0        0        
C3        C        0.583333        0.203703        0.0        0        
C4        C        0.625        0.148148        0.0        0        
C1        C        0.583333        0.24074099999999998        0.0        0        
C2        C        0.625        0.296297        0.0        0        
C3        C        0.583333        0.314815        0.0        0        
C4        C        0.625        0.259259        0.0        0        
C1        C        0.583333        0.351852        0.0        0        
C2        C        0.625        0.407408        0.0        0        
C3        C        0.583333        0.42592500000000005        0.0        0        
C4        C        0.625        0.37037        0.0        0        
C1        C        0.583333        0.46296300000000007        0.0        0        
C2        C        0.625        0.518519        0.0        0        
C3        C        0.583333        0.537037        0.0        0        
C4        C        0.625        0.481481        0.0        0        
C1        C        0.583333        0.574075        0.0        0        
C2        C        0.625        0.62963        0.0        0        
C3        C        0.583333        0.648148        0.0        0        
C4        C        0.625        0.592592        0.0        0        
C1        C        0.666667        0.018519        0.0        0        
C2        C        0.708333        0.074075        0.0        0        
C3        C        0.666667        0.092592        0.0        0        
C4        C        0.708333        0.037037        0.0        0        
C1        C        0.666667        0.12963        0.0        0        
C2        C        0.708333        0.185185        0.0        0        
C3        C        0.666667        0.203703        0.0        0        
C4        C        0.708333        0.148148        0.0        0        
C1        C        0.666667        0.24074099999999998        0.0        0        
C2        C        0.708333        0.296297        0.0        0        
C3        C        0.666667        0.314815        0.0        0        
C4        C        0.708333        0.259259        0.0        0        
C1        C        0.666667        0.351852        0.0        0        
C2        C        0.708333        0.407408        0.0        0        
C3        C        0.666667        0.42592500000000005        0.0        0        
C4        C        0.708333        0.37037        0.0        0        
C1        C        0.666667        0.46296300000000007        0.0        0        
C2        C        0.708333        0.518519        0.0        0        
C3        C        0.666667        0.537037        0.0        0        
C4        C        0.708333        0.481481        0.0        0        
C1        C        0.666667        0.574075        0.0        0        
C2        C        0.708333        0.62963        0.0        0        
C3        C        0.666667        0.648148        0.0        0        
C4        C        0.708333        0.592592        0.0        0        
C1        C        0.75        0.018519        0.0        0        
C2        C        0.7916670000000001        0.074075        0.0        0        
C3        C        0.75        0.092592        0.0        0        
C4        C        0.7916670000000001        0.037037        0.0        0        
C1        C        0.75        0.12963        0.0        0        
C2        C        0.7916670000000001        0.185185        0.0        0        
C3        C        0.75        0.203703        0.0        0        
C4        C        0.7916670000000001        0.148148        0.0        0        
C1        C        0.75        0.24074099999999998        0.0        0        
C2        C        0.7916670000000001        0.296297        0.0        0        
C3        C        0.75        0.314815        0.0        0        
C4        C        0.7916670000000001        0.259259        0.0        0        
C1        C        0.75        0.351852        0.0        0        
C2        C        0.7916670000000001        0.407408        0.0        0        
C3        C        0.75        0.42592500000000005        0.0        0        
C4        C        0.7916670000000001        0.37037        0.0        0        
C1        C        0.75        0.46296300000000007        0.0        0        
C2        C        0.7916670000000001        0.518519        0.0        0        
C3        C        0.75        0.537037        0.0        0        
C4        C        0.7916670000000001        0.481481        0.0        0        
C1        C        0.75        0.574075        0.0        0        
C2        C        0.7916670000000001        0.62963        0.0        0        
C3        C        0.75        0.648148        0.0        0        
C4        C        0.7916670000000001        0.592592        0.0        0        
C1        C        0.833333        0.018519        0.0        0        
C2        C        0.875        0.074075        0.0        0        
C3        C        0.833333        0.092592        0.0        0        
C4        C        0.875        0.037037        0.0        0        
C1        C        0.833333        0.12963        0.0        0        
C2        C        0.875        0.185185        0.0        0        
C3        C        0.833333        0.203703        0.0        0        
C4        C        0.875        0.148148        0.0        0        
C1        C        0.833333        0.24074099999999998        0.0        0        
C2        C        0.875        0.296297        0.0        0        
C3        C        0.833333        0.314815        0.0        0        
C4        C        0.875        0.259259        0.0        0        
C1        C        0.833333        0.351852        0.0        0        
C2        C        0.875        0.407408        0.0        0        
C3        C        0.833333        0.42592500000000005        0.0        0        
C4        C        0.875        0.37037        0.0        0        
C1        C        0.833333        0.46296300000000007        0.0        0        
C2        C        0.875        0.518519        0.0        0        
C3        C        0.833333        0.537037        0.0        0        
C4        C        0.875        0.481481        0.0        0        
C1        C        0.833333        0.574075        0.0        0        
C2        C        0.875        0.62963        0.0        0        
C3        C        0.833333        0.648148        0.0        0        
C4        C        0.875        0.592592        0.0        0        
C1        C        0.916667        0.018519        0.0        0        
C2        C        0.958333        0.074075        0.0        0        
C3        C        0.916667        0.092592        0.0        0        
C4        C        0.958333        0.037037        0.0        0        
C1        C        0.916667        0.12963        0.0        0        
C2        C        0.958333        0.185185        0.0        0        
C3        C        0.916667        0.203703        0.0        0        
C4        C        0.958333        0.148148        0.0        0        
C1        C        0.916667        0.24074099999999998        0.0        0        
C2        C        0.958333        0.296297        0.0        0        
C3        C        0.916667        0.314815        0.0        0        
C4        C        0.958333        0.259259        0.0        0        
C1        C        0.916667        0.351852        0.0        0        
C2        C        0.958333        0.407408        0.0        0        
C3        C        0.916667        0.42592500000000005        0.0        0        
C4        C        0.958333        0.37037        0.0        0        
C1        C        0.916667        0.46296300000000007        0.0        0        
C2        C        0.958333        0.518519        0.0        0        
C3        C        0.916667        0.537037        0.0        0        
C4        C        0.958333        0.481481        0.0        0        
C1        C        0.916667        0.574075        0.0        0        
C2        C        0.958333        0.62963        0.0        0        
C3        C        0.916667        0.648148        0.0        0        
C4        C        0.958333        0.592592        0.0        0        
C1        C        0.0        0.685186        0.0        0        
C1        C        0.083333        0.685186        0.0        0        
C1        C        0.166667        0.685186        0.0        0        
C1        C        0.25        0.685186        0.0        0        
C1        C        0.333333        0.685186        0.0        0        
C1        C        0.416667        0.685186        0.0        0        
C1        C        0.5        0.685186        0.0        0        
C1        C        0.583333        0.685186        0.0        0        
C1        C        0.666667        0.685186        0.0        0        
C1        C        0.75        0.685186        0.0        0        
C1        C        0.833333        0.685186        0.0        0        
C1        C        0.916667        0.685186        0.0        0        
C2        C        0.041667        0.740741        0.0        0        
C2        C        0.125        0.740741        0.0        0        
C2        C        0.208333        0.740741        0.0        0        
C2        C        0.291667        0.740741        0.0        0        
C2        C        0.375        0.740741        0.0        0        
C2        C        0.458333        0.740741        0.0        0        
C2        C        0.541667        0.740741        0.0        0        
C2        C        0.625        0.740741        0.0        0        
C2        C        0.708333        0.740741        0.0        0        
C2        C        0.7916670000000001        0.740741        0.0        0        
C2        C        0.875        0.740741        0.0        0        
C2        C        0.958333        0.740741        0.0        0        
C3        C        0.0        0.759259        0.0        0        
C3        C        0.083333        0.759259        0.0        0        
C3        C        0.166667        0.759259        0.0        0        
C3        C        0.25        0.759259        0.0        0        
C3        C        0.333333        0.759259        0.0        0        
C3        C        0.416667        0.759259        0.0        0        
C3        C        0.5        0.759259        0.0        0        
C3        C        0.583333        0.759259        0.0        0        
C3        C        0.666667        0.759259        0.0        0        
C3        C        0.75        0.759259        0.0        0        
C3        C        0.833333        0.759259        0.0        0        
C3        C        0.916667        0.759259        0.0        0        
C4        C        0.041667        0.703703        0.0        0        
C4        C        0.125        0.703703        0.0        0        
C4        C        0.208333        0.703703        0.0        0        
C4        C        0.291667        0.703703        0.0        0        
C4        C        0.375        0.703703        0.0        0        
C4        C        0.458333        0.703703        0.0        0        
C4        C        0.541667        0.703703        0.0        0        
C4        C        0.625        0.703703        0.0        0        
C4        C        0.708333        0.703703        0.0        0        
C4        C        0.7916670000000001        0.703703        0.0        0        
C4        C        0.875        0.703703        0.0        0        
C4        C        0.958333        0.703703        0.0        0        
C1        C        0.0        0.796297        0.0        0        
C1        C        0.083333        0.796297        0.0        0        
C1        C        0.166667        0.796297        0.0        0        
C1        C        0.25        0.796297        0.0        0        
C1        C        0.333333        0.796297        0.0        0        
C1        C        0.416667        0.796297        0.0        0        
C1        C        0.5        0.796297        0.0        0        
C1        C        0.583333        0.796297        0.0        0        
C1        C        0.666667        0.796297        0.0        0        
C1        C        0.75        0.796297        0.0        0        
C1        C        0.833333        0.796297        0.0        0        
C1        C        0.916667        0.796297        0.0        0        
C2        C        0.041667        0.851852        0.0        0        
C2        C        0.125        0.851852        0.0        0        
C2        C        0.208333        0.851852        0.0        0        
C2        C        0.291667        0.851852        0.0        0        
C2        C        0.375        0.851852        0.0        0        
C2        C        0.458333        0.851852        0.0        0        
C2        C        0.541667        0.851852        0.0        0        
C2        C        0.625        0.851852        0.0        0        
C2        C        0.708333        0.851852        0.0        0        
C2        C        0.7916670000000001        0.851852        0.0        0        
C2        C        0.875        0.851852        0.0        0        
C2        C        0.958333        0.851852        0.0        0        
C3        C        0.0        0.87037        0.0        0        
C3        C        0.083333        0.87037        0.0        0        
C3        C        0.166667        0.87037        0.0        0        
C3        C        0.25        0.87037        0.0        0        
C3        C        0.333333        0.87037        0.0        0        
C3        C        0.416667        0.87037        0.0        0        
C3        C        0.5        0.87037        0.0        0        
C3        C        0.583333        0.87037        0.0        0        
C3        C        0.666667        0.87037        0.0        0        
C3        C        0.75        0.87037        0.0        0        
C3        C        0.833333        0.87037        0.0        0        
C3        C        0.916667        0.87037        0.0        0        
C4        C        0.041667        0.814814        0.0        0        
C4        C        0.125        0.814814        0.0        0        
C4        C        0.208333        0.814814        0.0        0        
C4        C        0.291667        0.814814        0.0        0        
C4        C        0.375        0.814814        0.0        0        
C4        C        0.458333        0.814814        0.0        0        
C4        C        0.541667        0.814814        0.0        0        
C4        C        0.625        0.814814        0.0        0        
C4        C        0.708333        0.814814        0.0        0        
C4        C        0.7916670000000001        0.814814        0.0        0        
C4        C        0.875        0.814814        0.0        0        
C4        C        0.958333        0.814814        0.0        0        
C1        C        0.0        0.907408        0.0        0        
C1        C        0.083333        0.907408        0.0        0        
C1        C        0.166667        0.907408        0.0        0        
C1        C        0.25        0.907408        0.0        0        
C1        C        0.333333        0.907408        0.0        0        
C1        C        0.416667        0.907408        0.0        0        
C1        C        0.5        0.907408        0.0        0        
C1        C        0.583333        0.907408        0.0        0        
C1        C        0.666667        0.907408        0.0        0        
C1        C        0.75        0.907408        0.0        0        
C1        C        0.833333        0.907408        0.0        0        
C1        C        0.916667        0.907408        0.0        0        
C2        C        0.041667        0.962963        0.0        0        
C2        C        0.125        0.962963        0.0        0        
C2        C        0.208333        0.962963        0.0        0        
C2        C        0.291667        0.962963        0.0        0        
C2        C        0.375        0.962963        0.0        0        
C2        C        0.458333        0.962963        0.0        0        
C2        C        0.541667        0.962963        0.0        0        
C2        C        0.625        0.962963        0.0        0        
C2        C        0.708333        0.962963        0.0        0        
C2        C        0.7916670000000001        0.962963        0.0        0        
C2        C        0.875        0.962963        0.0        0        
C2        C        0.958333        0.962963        0.0        0        
C3        C        0.0        0.9814809999999999        0.0        0        
C3        C        0.083333        0.9814809999999999        0.0        0        
C3        C        0.166667        0.9814809999999999        0.0        0        
C3        C        0.25        0.9814809999999999        0.0        0        
C3        C        0.333333        0.9814809999999999        0.0        0        
C3        C        0.416667        0.9814809999999999        0.0        0        
C3        C        0.5        0.9814809999999999        0.0        0        
C3        C        0.583333        0.9814809999999999        0.0        0        
C3        C        0.666667        0.9814809999999999        0.0        0        
C3        C        0.75        0.9814809999999999        0.0        0        
C3        C        0.833333        0.9814809999999999        0.0        0        
C3        C        0.916667        0.9814809999999999        0.0        0        
C4        C        0.041667        0.925925        0.0        0        
C4        C        0.125        0.925925        0.0        0        
C4        C        0.208333        0.925925        0.0        0        
C4        C        0.291667        0.925925        0.0        0        
C4        C        0.375        0.925925        0.0        0        
C4        C        0.458333        0.925925        0.0        0        
C4        C        0.541667        0.925925        0.0        0        
C4        C        0.625        0.925925        0.0        0        
C4        C        0.708333        0.925925        0.0        0        
C4        C        0.7916670000000001        0.925925        0.0        0        
C4        C        0.875        0.925925        0.0        0        
C4        C        0.958333        0.925925        0.0        0        
C1        C        0.0        0.018519        0.115917        0        
C2        C        0.041667        0.074075        0.115917        0        
C3        C        0.0        0.092592        0.115917        0        
C4        C        0.041667        0.037037        0.115917        0        
C1        C        0.0        0.12963        0.115917        0        
C2        C        0.041667        0.185185        0.115917        0        
C3        C        0.0        0.203703        0.115917        0        
C4        C        0.041667        0.148148        0.115917        0        
C1        C        0.0        0.24074099999999998        0.115917        0        
C2        C        0.041667        0.296297        0.115917        0        
C3        C        0.0        0.314815        0.115917        0        
C4        C        0.041667        0.259259        0.115917        0        
C1        C        0.0        0.351852        0.115917        0        
C2        C        0.041667        0.407408        0.115917        0        
C3        C        0.0        0.42592500000000005        0.115917        0        
C4        C        0.041667        0.37037        0.115917        0        
C1        C        0.0        0.46296300000000007        0.115917        0        
C2        C        0.041667        0.518519        0.115917        0        
C3        C        0.0        0.537037        0.115917        0        
C4        C        0.041667        0.481481        0.115917        0        
C1        C        0.0        0.574075        0.115917        0        
C2        C        0.041667        0.62963        0.115917        0        
C3        C        0.0        0.648148        0.115917        0        
C4        C        0.041667        0.592592        0.115917        0        
C1        C        0.083333        0.018519        0.115917        0        
C2        C        0.125        0.074075        0.115917        0        
C3        C        0.083333        0.092592        0.115917        0        
C4        C        0.125        0.037037        0.115917        0        
C1        C        0.083333        0.12963        0.115917        0        
C2        C        0.125        0.185185        0.115917        0        
C3        C        0.083333        0.203703        0.115917        0        
C4        C        0.125        0.148148        0.115917        0        
C1        C        0.083333        0.24074099999999998        0.115917        0        
C2        C        0.125        0.296297        0.115917        0        
C3        C        0.083333        0.314815        0.115917        0        
C4        C        0.125        0.259259        0.115917        0        
C1        C        0.083333        0.351852        0.115917        0        
C2        C        0.125        0.407408        0.115917        0        
C3        C        0.083333        0.42592500000000005        0.115917        0        
C4        C        0.125        0.37037        0.115917        0        
C1        C        0.083333        0.46296300000000007        0.115917        0        
C2        C        0.125        0.518519        0.115917        0        
C3        C        0.083333        0.537037        0.115917        0        
C4        C        0.125        0.481481        0.115917        0        
C1        C        0.083333        0.574075        0.115917        0        
C2        C        0.125        0.62963        0.115917        0        
C3        C        0.083333        0.648148        0.115917        0        
C4        C        0.125        0.592592        0.115917        0        
C1        C        0.166667        0.018519        0.115917        0        
C2        C        0.208333        0.074075        0.115917        0        
C3        C        0.166667        0.092592        0.115917        0        
C4        C        0.208333        0.037037        0.115917        0        
C1        C        0.166667        0.12963        0.115917        0        
C2        C        0.208333        0.185185        0.115917        0        
C3        C        0.166667        0.203703        0.115917        0        
C4        C        0.208333        0.148148        0.115917        0        
C1        C        0.166667        0.24074099999999998        0.115917        0        
C2        C        0.208333        0.296297        0.115917        0        
C3        C        0.166667        0.314815        0.115917        0        
C4        C        0.208333        0.259259        0.115917        0        
C1        C        0.166667        0.351852        0.115917        0        
C2        C        0.208333        0.407408        0.115917        0        
C3        C        0.166667        0.42592500000000005        0.115917        0        
C4        C        0.208333        0.37037        0.115917        0        
C1        C        0.166667        0.46296300000000007        0.115917        0        
C2        C        0.208333        0.518519        0.115917        0        
C3        C        0.166667        0.537037        0.115917        0        
C4        C        0.208333        0.481481        0.115917        0        
C1        C        0.166667        0.574075        0.115917        0        
C2        C        0.208333        0.62963        0.115917        0        
C3        C        0.166667        0.648148        0.115917        0        
C4        C        0.208333        0.592592        0.115917        0        
C1        C        0.25        0.018519        0.115917        0        
C2        C        0.291667        0.074075        0.115917        0        
C3        C        0.25        0.092592        0.115917        0        
C4        C        0.291667        0.037037        0.115917        0        
C1        C        0.25        0.12963        0.115917        0        
C2        C        0.291667        0.185185        0.115917        0        
C3        C        0.25        0.203703        0.115917        0        
C4        C        0.291667        0.148148        0.115917        0        
C1        C        0.25        0.24074099999999998        0.115917        0        
C2        C        0.291667        0.296297        0.115917        0        
C3        C        0.25        0.314815        0.115917        0        
C4        C        0.291667        0.259259        0.115917        0        
C1        C        0.25        0.351852        0.115917        0        
C2        C        0.291667        0.407408        0.115917        0        
C3        C        0.25        0.42592500000000005        0.115917        0        
C4        C        0.291667        0.37037        0.115917        0        
C1        C        0.25        0.46296300000000007        0.115917        0        
C2        C        0.291667        0.518519        0.115917        0        
C3        C        0.25        0.537037        0.115917        0        
C4        C        0.291667        0.481481        0.115917        0        
C1        C        0.25        0.574075        0.115917        0        
C2        C        0.291667        0.62963        0.115917        0        
C3        C        0.25        0.648148        0.115917        0        
C4        C        0.291667        0.592592        0.115917        0        
C1        C        0.333333        0.018519        0.115917        0        
C2        C        0.375        0.074075        0.115917        0        
C3        C        0.333333        0.092592        0.115917        0        
C4        C        0.375        0.037037        0.115917        0        
C1        C        0.333333        0.12963        0.115917        0        
C2        C        0.375        0.185185        0.115917        0        
C3        C        0.333333        0.203703        0.115917        0        
C4        C        0.375        0.148148        0.115917        0        
C1        C        0.333333        0.24074099999999998        0.115917        0        
C2        C        0.375        0.296297        0.115917        0        
C3        C        0.333333        0.314815        0.115917        0        
C4        C        0.375        0.259259        0.115917        0        
C1        C        0.333333        0.351852        0.115917        0        
C2        C        0.375        0.407408        0.115917        0        
C3        C        0.333333        0.42592500000000005        0.115917        0        
C4        C        0.375        0.37037        0.115917        0        
C1        C        0.333333        0.46296300000000007        0.115917        0        
C2        C        0.375        0.518519        0.115917        0        
C3        C        0.333333        0.537037        0.115917        0        
C4        C        0.375        0.481481        0.115917        0        
C1        C        0.333333        0.574075        0.115917        0        
C2        C        0.375        0.62963        0.115917        0        
C3        C        0.333333        0.648148        0.115917        0        
C4        C        0.375        0.592592        0.115917        0        
C1        C        0.416667        0.018519        0.115917        0        
C2        C        0.458333        0.074075        0.115917        0        
C3        C        0.416667        0.092592        0.115917        0        
C4        C        0.458333        0.037037        0.115917        0        
C1        C        0.416667        0.12963        0.115917        0        
C2        C        0.458333        0.185185        0.115917        0        
C3        C        0.416667        0.203703        0.115917        0        
C4        C        0.458333        0.148148        0.115917        0        
C1        C        0.416667        0.24074099999999998        0.115917        0        
C2        C        0.458333        0.296297        0.115917        0        
C3        C        0.416667        0.314815        0.115917        0        
C4        C        0.458333        0.259259        0.115917        0        
C1        C        0.416667        0.351852        0.115917        0        
C2        C        0.458333        0.407408        0.115917        0        
C3        C        0.416667        0.42592500000000005        0.115917        0        
C4        C        0.458333        0.37037        0.115917        0        
C1        C        0.416667        0.46296300000000007        0.115917        0        
C2        C        0.458333        0.518519        0.115917        0        
C3        C        0.416667        0.537037        0.115917        0        
C4        C        0.458333        0.481481        0.115917        0        
C1        C        0.416667        0.574075        0.115917        0        
C2        C        0.458333        0.62963        0.115917        0        
C3        C        0.416667        0.648148        0.115917        0        
C4        C        0.458333        0.592592        0.115917        0        
C1        C        0.5        0.018519        0.115917        0        
C2        C        0.541667        0.074075        0.115917        0        
C3        C        0.5        0.092592        0.115917        0        
C4        C        0.541667        0.037037        0.115917        0        
C1        C        0.5        0.12963        0.115917        0        
C2        C        0.541667        0.185185        0.115917        0        
C3        C        0.5        0.203703        0.115917        0        
C4        C        0.541667        0.148148        0.115917        0        
C1        C        0.5        0.24074099999999998        0.115917        0        
C2        C        0.541667        0.296297        0.115917        0        
C3        C        0.5        0.314815        0.115917        0        
C4        C        0.541667        0.259259        0.115917        0        
C1        C        0.5        0.351852        0.115917        0        
C2        C        0.541667        0.407408        0.115917        0        
C3        C        0.5        0.42592500000000005        0.115917        0        
C4        C        0.541667        0.37037        0.115917        0        
C1        C        0.5        0.46296300000000007        0.115917        0        
C2        C        0.541667        0.518519        0.115917        0        
C3        C        0.5        0.537037        0.115917        0        
C4        C        0.541667        0.481481        0.115917        0        
C1        C        0.5        0.574075        0.115917        0        
C2        C        0.541667        0.62963        0.115917        0        
C3        C        0.5        0.648148        0.115917        0        
C4        C        0.541667        0.592592        0.115917        0        
C1        C        0.583333        0.018519        0.115917        0        
C2        C        0.625        0.074075        0.115917        0        
C3        C        0.583333        0.092592        0.115917        0        
C4        C        0.625        0.037037        0.115917        0        
C1        C        0.583333        0.12963        0.115917        0        
C2        C        0.625        0.185185        0.115917        0        
C3        C        0.583333        0.203703        0.115917        0        
C4        C        0.625        0.148148        0.115917        0        
C1        C        0.583333        0.24074099999999998        0.115917        0        
C2        C        0.625        0.296297        0.115917        0        
C3        C        0.583333        0.314815        0.115917        0        
C4        C        0.625        0.259259        0.115917        0        
C1        C        0.583333        0.351852        0.115917        0        
C2        C        0.625        0.407408        0.115917        0        
C3        C        0.583333        0.42592500000000005        0.115917        0        
C4        C        0.625        0.37037        0.115917        0        
C1        C        0.583333        0.46296300000000007        0.115917        0        
C2        C        0.625        0.518519        0.115917        0        
C3        C        0.583333        0.537037        0.115917        0        
C4        C        0.625        0.481481        0.115917        0        
C1        C        0.583333        0.574075        0.115917        0        
C2        C        0.625        0.62963        0.115917        0        
C3        C        0.583333        0.648148        0.115917        0        
C4        C        0.625        0.592592        0.115917        0        
C1        C        0.666667        0.018519        0.115917        0        
C2        C        0.708333        0.074075        0.115917        0        
C3        C        0.666667        0.092592        0.115917        0        
C4        C        0.708333        0.037037        0.115917        0        
C1        C        0.666667        0.12963        0.115917        0        
C2        C        0.708333        0.185185        0.115917        0        
C3        C        0.666667        0.203703        0.115917        0        
C4        C        0.708333        0.148148        0.115917        0        
C1        C        0.666667        0.24074099999999998        0.115917        0        
C2        C        0.708333        0.296297        0.115917        0        
C3        C        0.666667        0.314815        0.115917        0        
C4        C        0.708333        0.259259        0.115917        0        
C1        C        0.666667        0.351852        0.115917        0        
C2        C        0.708333        0.407408        0.115917        0        
C3        C        0.666667        0.42592500000000005        0.115917        0        
C4        C        0.708333        0.37037        0.115917        0        
C1        C        0.666667        0.46296300000000007        0.115917        0        
C2        C        0.708333        0.518519        0.115917        0        
C3        C        0.666667        0.537037        0.115917        0        
C4        C        0.708333        0.481481        0.115917        0        
C1        C        0.666667        0.574075        0.115917        0        
C2        C        0.708333        0.62963        0.115917        0        
C3        C        0.666667        0.648148        0.115917        0        
C4        C        0.708333        0.592592        0.115917        0        
C1        C        0.75        0.018519        0.115917        0        
C2        C        0.7916670000000001        0.074075        0.115917        0        
C3        C        0.75        0.092592        0.115917        0        
C4        C        0.7916670000000001        0.037037        0.115917        0        
C1        C        0.75        0.12963        0.115917        0        
C2        C        0.7916670000000001        0.185185        0.115917        0        
C3        C        0.75        0.203703        0.115917        0        
C4        C        0.7916670000000001        0.148148        0.115917        0        
C1        C        0.75        0.24074099999999998        0.115917        0        
C2        C        0.7916670000000001        0.296297        0.115917        0        
C3        C        0.75        0.314815        0.115917        0        
C4        C        0.7916670000000001        0.259259        0.115917        0        
C1        C        0.75        0.351852        0.115917        0        
C2        C        0.7916670000000001        0.407408        0.115917        0        
C3        C        0.75        0.42592500000000005        0.115917        0        
C4        C        0.7916670000000001        0.37037        0.115917        0        
C1        C        0.75        0.46296300000000007        0.115917        0        
C2        C        0.7916670000000001        0.518519        0.115917        0        
C3        C        0.75        0.537037        0.115917        0        
C4        C        0.7916670000000001        0.481481        0.115917        0        
C1        C        0.75        0.574075        0.115917        0        
C2        C        0.7916670000000001        0.62963        0.115917        0        
C3        C        0.75        0.648148        0.115917        0        
C4        C        0.7916670000000001        0.592592        0.115917        0        
C1        C        0.833333        0.018519        0.115917        0        
C2        C        0.875        0.074075        0.115917        0        
C3        C        0.833333        0.092592        0.115917        0        
C4        C        0.875        0.037037        0.115917        0        
C1        C        0.833333        0.12963        0.115917        0        
C2        C        0.875        0.185185        0.115917        0        
C3        C        0.833333        0.203703        0.115917        0        
C4        C        0.875        0.148148        0.115917        0        
C1        C        0.833333        0.24074099999999998        0.115917        0        
C2        C        0.875        0.296297        0.115917        0        
C3        C        0.833333        0.314815        0.115917        0        
C4        C        0.875        0.259259        0.115917        0        
C1        C        0.833333        0.351852        0.115917        0        
C2        C        0.875        0.407408        0.115917        0        
C3        C        0.833333        0.42592500000000005        0.115917        0        
C4        C        0.875        0.37037        0.115917        0        
C1        C        0.833333        0.46296300000000007        0.115917        0        
C2        C        0.875        0.518519        0.115917        0        
C3        C        0.833333        0.537037        0.115917        0        
C4        C        0.875        0.481481        0.115917        0        
C1        C        0.833333        0.574075        0.115917        0        
C2        C        0.875        0.62963        0.115917        0        
C3        C        0.833333        0.648148        0.115917        0        
C4        C        0.875        0.592592        0.115917        0        
C1        C        0.916667        0.018519        0.115917        0        
C2        C        0.958333        0.074075        0.115917        0        
C3        C        0.916667        0.092592        0.115917        0        
C4        C        0.958333        0.037037        0.115917        0        
C1        C        0.916667        0.12963        0.115917        0        
C2        C        0.958333        0.185185        0.115917        0        
C3        C        0.916667        0.203703        0.115917        0        
C4        C        0.958333        0.148148        0.115917        0        
C1        C        0.916667        0.24074099999999998        0.115917        0        
C2        C        0.958333        0.296297        0.115917        0        
C3        C        0.916667        0.314815        0.115917        0        
C4        C        0.958333        0.259259        0.115917        0        
C1        C        0.916667        0.351852        0.115917        0        
C2        C        0.958333        0.407408        0.115917        0        
C3        C        0.916667        0.42592500000000005        0.115917        0        
C4        C        0.958333        0.37037        0.115917        0        
C1        C        0.916667        0.46296300000000007        0.115917        0        
C2        C        0.958333        0.518519        0.115917        0        
C3        C        0.916667        0.537037        0.115917        0        
C4        C        0.958333        0.481481        0.115917        0        
C1        C        0.916667        0.574075        0.115917        0        
C2        C        0.958333        0.62963        0.115917        0        
C3        C        0.916667        0.648148        0.115917        0        
C4        C        0.958333        0.592592        0.115917        0        
C1        C        0.0        0.685186        0.115917        0        
C1        C        0.083333        0.685186        0.115917        0        
C1        C        0.166667        0.685186        0.115917        0        
C1        C        0.25        0.685186        0.115917        0        
C1        C        0.333333        0.685186        0.115917        0        
C1        C        0.416667        0.685186        0.115917        0        
C1        C        0.5        0.685186        0.115917        0        
C1        C        0.583333        0.685186        0.115917        0        
C1        C        0.666667        0.685186        0.115917        0        
C1        C        0.75        0.685186        0.115917        0        
C1        C        0.833333        0.685186        0.115917        0        
C1        C        0.916667        0.685186        0.115917        0        
C2        C        0.041667        0.740741        0.115917        0        
C2        C        0.125        0.740741        0.115917        0        
C2        C        0.208333        0.740741        0.115917        0        
C2        C        0.291667        0.740741        0.115917        0        
C2        C        0.375        0.740741        0.115917        0        
C2        C        0.458333        0.740741        0.115917        0        
C2        C        0.541667        0.740741        0.115917        0        
C2        C        0.625        0.740741        0.115917        0        
C2        C        0.708333        0.740741        0.115917        0        
C2        C        0.7916670000000001        0.740741        0.115917        0        
C2        C        0.875        0.740741        0.115917        0        
C2        C        0.958333        0.740741        0.115917        0        
C3        C        0.0        0.759259        0.115917        0        
C3        C        0.083333        0.759259        0.115917        0        
C3        C        0.166667        0.759259        0.115917        0        
C3        C        0.25        0.759259        0.115917        0        
C3        C        0.333333        0.759259        0.115917        0        
C3        C        0.416667        0.759259        0.115917        0        
C3        C        0.5        0.759259        0.115917        0        
C3        C        0.583333        0.759259        0.115917        0        
C3        C        0.666667        0.759259        0.115917        0        
C3        C        0.75        0.759259        0.115917        0        
C3        C        0.833333        0.759259        0.115917        0        
C3        C        0.916667        0.759259        0.115917        0        
C4        C        0.041667        0.703703        0.115917        0        
C4        C        0.125        0.703703        0.115917        0        
C4        C        0.208333        0.703703        0.115917        0        
C4        C        0.291667        0.703703        0.115917        0        
C4        C        0.375        0.703703        0.115917        0        
C4        C        0.458333        0.703703        0.115917        0        
C4        C        0.541667        0.703703        0.115917        0        
C4        C        0.625        0.703703        0.115917        0        
C4        C        0.708333        0.703703        0.115917        0        
C4        C        0.7916670000000001        0.703703        0.115917        0        
C4        C        0.875        0.703703        0.115917        0        
C4        C        0.958333        0.703703        0.115917        0        
C1        C        0.0        0.796297        0.115917        0        
C1        C        0.083333        0.796297        0.115917        0        
C1        C        0.166667        0.796297        0.115917        0        
C1        C        0.25        0.796297        0.115917        0        
C1        C        0.333333        0.796297        0.115917        0        
C1        C        0.416667        0.796297        0.115917        0        
C1        C        0.5        0.796297        0.115917        0        
C1        C        0.583333        0.796297        0.115917        0        
C1        C        0.666667        0.796297        0.115917        0        
C1        C        0.75        0.796297        0.115917        0        
C1        C        0.833333        0.796297        0.115917        0        
C1        C        0.916667        0.796297        0.115917        0        
C2        C        0.041667        0.851852        0.115917        0        
C2        C        0.125        0.851852        0.115917        0        
C2        C        0.208333        0.851852        0.115917        0        
C2        C        0.291667        0.851852        0.115917        0        
C2        C        0.375        0.851852        0.115917        0        
C2        C        0.458333        0.851852        0.115917        0        
C2        C        0.541667        0.851852        0.115917        0        
C2        C        0.625        0.851852        0.115917        0        
C2        C        0.708333        0.851852        0.115917        0        
C2        C        0.7916670000000001        0.851852        0.115917        0        
C2        C        0.875        0.851852        0.115917        0        
C2        C        0.958333        0.851852        0.115917        0        
C3        C        0.0        0.87037        0.115917        0        
C3        C        0.083333        0.87037        0.115917        0        
C3        C        0.166667        0.87037        0.115917        0        
C3        C        0.25        0.87037        0.115917        0        
C3        C        0.333333        0.87037        0.115917        0        
C3        C        0.416667        0.87037        0.115917        0        
C3        C        0.5        0.87037        0.115917        0        
C3        C        0.583333        0.87037        0.115917        0        
C3        C        0.666667        0.87037        0.115917        0        
C3        C        0.75        0.87037        0.115917        0        
C3        C        0.833333        0.87037        0.115917        0        
C3        C        0.916667        0.87037        0.115917        0        
C4        C        0.041667        0.814814        0.115917        0        
C4        C        0.125        0.814814        0.115917        0        
C4        C        0.208333        0.814814        0.115917        0        
C4        C        0.291667        0.814814        0.115917        0        
C4        C        0.375        0.814814        0.115917        0        
C4        C        0.458333        0.814814        0.115917        0        
C4        C        0.541667        0.814814        0.115917        0        
C4        C        0.625        0.814814        0.115917        0        
C4        C        0.708333        0.814814        0.115917        0        
C4        C        0.7916670000000001        0.814814        0.115917        0        
C4        C        0.875        0.814814        0.115917        0        
C4        C        0.958333        0.814814        0.115917        0        
C1        C        0.0        0.907408        0.115917        0        
C1        C        0.083333        0.907408        0.115917        0        
C1        C        0.166667        0.907408        0.115917        0        
C1        C        0.25        0.907408        0.115917        0        
C1        C        0.333333        0.907408        0.115917        0        
C1        C        0.416667        0.907408        0.115917        0        
C1        C        0.5        0.907408        0.115917        0        
C1        C        0.583333        0.907408        0.115917        0        
C1        C        0.666667        0.907408        0.115917        0        
C1        C        0.75        0.907408        0.115917        0        
C1        C        0.833333        0.907408        0.115917        0        
C1        C        0.916667        0.907408        0.115917        0        
C2        C        0.041667        0.962963        0.115917        0        
C2        C        0.125        0.962963        0.115917        0        
C2        C        0.208333        0.962963        0.115917        0        
C2        C        0.291667        0.962963        0.115917        0        
C2        C        0.375        0.962963        0.115917        0        
C2        C        0.458333        0.962963        0.115917        0        
C2        C        0.541667        0.962963        0.115917        0        
C2        C        0.625        0.962963        0.115917        0        
C2        C        0.708333        0.962963        0.115917        0        
C2        C        0.7916670000000001        0.962963        0.115917        0        
C2        C        0.875        0.962963        0.115917        0        
C2        C        0.958333        0.962963        0.115917        0        
C3        C        0.0        0.9814809999999999        0.115917        0        
C3        C        0.083333        0.9814809999999999        0.115917        0        
C3        C        0.166667        0.9814809999999999        0.115917        0        
C3        C        0.25        0.9814809999999999        0.115917        0        
C3        C        0.333333        0.9814809999999999        0.115917        0        
C3        C        0.416667        0.9814809999999999        0.115917        0        
C3        C        0.5        0.9814809999999999        0.115917        0        
C3        C        0.583333        0.9814809999999999        0.115917        0        
C3        C        0.666667        0.9814809999999999        0.115917        0        
C3        C        0.75        0.9814809999999999        0.115917        0        
C3        C        0.833333        0.9814809999999999        0.115917        0        
C3        C        0.916667        0.9814809999999999        0.115917        0        
C4        C        0.041667        0.925925        0.115917        0        
C4        C        0.125        0.925925        0.115917        0        
C4        C        0.208333        0.925925        0.115917        0        
C4        C        0.291667        0.925925        0.115917        0        
C4        C        0.375        0.925925        0.115917        0        
C4        C        0.458333        0.925925        0.115917        0        
C4        C        0.541667        0.925925        0.115917        0        
C4        C        0.625        0.925925        0.115917        0        
C4        C        0.708333        0.925925        0.115917        0        
C4        C        0.7916670000000001        0.925925        0.115917        0        
C4        C        0.875        0.925925        0.115917        0        
C4        C        0.958333        0.925925        0.115917        0        
C1        C        0.0        0.018519        0.231834        0        
C2        C        0.041667        0.074075        0.231834        0        
C3        C        0.0        0.092592        0.231834        0        
C4        C        0.041667        0.037037        0.231834        0        
C1        C        0.0        0.12963        0.231834        0        
C2        C        0.041667        0.185185        0.231834        0        
C3        C        0.0        0.203703        0.231834        0        
C4        C        0.041667        0.148148        0.231834        0        
C1        C        0.0        0.24074099999999998        0.231834        0        
C2        C        0.041667        0.296297        0.231834        0        
C3        C        0.0        0.314815        0.231834        0        
C4        C        0.041667        0.259259        0.231834        0        
C1        C        0.0        0.351852        0.231834        0        
C2        C        0.041667        0.407408        0.231834        0        
C3        C        0.0        0.42592500000000005        0.231834        0        
C4        C        0.041667        0.37037        0.231834        0        
C1        C        0.0        0.46296300000000007        0.231834        0        
C2        C        0.041667        0.518519        0.231834        0        
C3        C        0.0        0.537037        0.231834        0        
C4        C        0.041667        0.481481        0.231834        0        
C1        C        0.0        0.574075        0.231834        0        
C2        C        0.041667        0.62963        0.231834        0        
C3        C        0.0        0.648148        0.231834        0        
C4        C        0.041667        0.592592        0.231834        0        
C1        C        0.083333        0.018519        0.231834        0        
C2        C        0.125        0.074075        0.231834        0        
C3        C        0.083333        0.092592        0.231834        0        
C4        C        0.125        0.037037        0.231834        0        
C1        C        0.083333        0.12963        0.231834        0        
C2        C        0.125        0.185185        0.231834        0        
C3        C        0.083333        0.203703        0.231834        0        
C4        C        0.125        0.148148        0.231834        0        
C1        C        0.083333        0.24074099999999998        0.231834        0        
C2        C        0.125        0.296297        0.231834        0        
C3        C        0.083333        0.314815        0.231834        0        
C4        C        0.125        0.259259        0.231834        0        
C1        C        0.083333        0.351852        0.231834        0        
C2        C        0.125        0.407408        0.231834        0        
C3        C        0.083333        0.42592500000000005        0.231834        0        
C4        C        0.125        0.37037        0.231834        0        
C1        C        0.083333        0.46296300000000007        0.231834        0        
C2        C        0.125        0.518519        0.231834        0        
C3        C        0.083333        0.537037        0.231834        0        
C4        C        0.125        0.481481        0.231834        0        
C1        C        0.083333        0.574075        0.231834        0        
C2        C        0.125        0.62963        0.231834        0        
C3        C        0.083333        0.648148        0.231834        0        
C4        C        0.125        0.592592        0.231834        0        
C1        C        0.166667        0.018519        0.231834        0        
C2        C        0.208333        0.074075        0.231834        0        
C3        C        0.166667        0.092592        0.231834        0        
C4        C        0.208333        0.037037        0.231834        0        
C1        C        0.166667        0.12963        0.231834        0        
C2        C        0.208333        0.185185        0.231834        0        
C3        C        0.166667        0.203703        0.231834        0        
C4        C        0.208333        0.148148        0.231834        0        
C1        C        0.166667        0.24074099999999998        0.231834        0        
C2        C        0.208333        0.296297        0.231834        0        
C3        C        0.166667        0.314815        0.231834        0        
C4        C        0.208333        0.259259        0.231834        0        
C1        C        0.166667        0.351852        0.231834        0        
C2        C        0.208333        0.407408        0.231834        0        
C3        C        0.166667        0.42592500000000005        0.231834        0        
C4        C        0.208333        0.37037        0.231834        0        
C1        C        0.166667        0.46296300000000007        0.231834        0        
C2        C        0.208333        0.518519        0.231834        0        
C3        C        0.166667        0.537037        0.231834        0        
C4        C        0.208333        0.481481        0.231834        0        
C1        C        0.166667        0.574075        0.231834        0        
C2        C        0.208333        0.62963        0.231834        0        
C3        C        0.166667        0.648148        0.231834        0        
C4        C        0.208333        0.592592        0.231834        0        
C1        C        0.25        0.018519        0.231834        0        
C2        C        0.291667        0.074075        0.231834        0        
C3        C        0.25        0.092592        0.231834        0        
C4        C        0.291667        0.037037        0.231834        0        
C1        C        0.25        0.12963        0.231834        0        
C2        C        0.291667        0.185185        0.231834        0        
C3        C        0.25        0.203703        0.231834        0        
C4        C        0.291667        0.148148        0.231834        0        
C1        C        0.25        0.24074099999999998        0.231834        0        
C2        C        0.291667        0.296297        0.231834        0        
C3        C        0.25        0.314815        0.231834        0        
C4        C        0.291667        0.259259        0.231834        0        
C1        C        0.25        0.351852        0.231834        0        
C2        C        0.291667        0.407408        0.231834        0        
C3        C        0.25        0.42592500000000005        0.231834        0        
C4        C        0.291667        0.37037        0.231834        0        
C1        C        0.25        0.46296300000000007        0.231834        0        
C2        C        0.291667        0.518519        0.231834        0        
C3        C        0.25        0.537037        0.231834        0        
C4        C        0.291667        0.481481        0.231834        0        
C1        C        0.25        0.574075        0.231834        0        
C2        C        0.291667        0.62963        0.231834        0        
C3        C        0.25        0.648148        0.231834        0        
C4        C        0.291667        0.592592        0.231834        0        
C1        C        0.333333        0.018519        0.231834        0        
C2        C        0.375        0.074075        0.231834        0        
C3        C        0.333333        0.092592        0.231834        0        
C4        C        0.375        0.037037        0.231834        0        
C1        C        0.333333        0.12963        0.231834        0        
C2        C        0.375        0.185185        0.231834        0        
C3        C        0.333333        0.203703        0.231834        0        
C4        C        0.375        0.148148        0.231834        0        
C1        C        0.333333        0.24074099999999998        0.231834        0        
C2        C        0.375        0.296297        0.231834        0        
C3        C        0.333333        0.314815        0.231834        0        
C4        C        0.375        0.259259        0.231834        0        
C1        C        0.333333        0.351852        0.231834        0        
C2        C        0.375        0.407408        0.231834        0        
C3        C        0.333333        0.42592500000000005        0.231834        0        
C4        C        0.375        0.37037        0.231834        0        
C1        C        0.333333        0.46296300000000007        0.231834        0        
C2        C        0.375        0.518519        0.231834        0        
C3        C        0.333333        0.537037        0.231834        0        
C4        C        0.375        0.481481        0.231834        0        
C1        C        0.333333        0.574075        0.231834        0        
C2        C        0.375        0.62963        0.231834        0        
C3        C        0.333333        0.648148        0.231834        0        
C4        C        0.375        0.592592        0.231834        0        
C1        C        0.416667        0.018519        0.231834        0        
C2        C        0.458333        0.074075        0.231834        0        
C3        C        0.416667        0.092592        0.231834        0        
C4        C        0.458333        0.037037        0.231834        0        
C1        C        0.416667        0.12963        0.231834        0        
C2        C        0.458333        0.185185        0.231834        0        
C3        C        0.416667        0.203703        0.231834        0        
C4        C        0.458333        0.148148        0.231834        0        
C1        C        0.416667        0.24074099999999998        0.231834        0        
C2        C        0.458333        0.296297        0.231834        0        
C3        C        0.416667        0.314815        0.231834        0        
C4        C        0.458333        0.259259        0.231834        0        
C1        C        0.416667        0.351852        0.231834        0        
C2        C        0.458333        0.407408        0.231834        0        
C3        C        0.416667        0.42592500000000005        0.231834        0        
C4        C        0.458333        0.37037        0.231834        0        
C1        C        0.416667        0.46296300000000007        0.231834        0        
C2        C        0.458333        0.518519        0.231834        0        
C3        C        0.416667        0.537037        0.231834        0        
C4        C        0.458333        0.481481        0.231834        0        
C1        C        0.416667        0.574075        0.231834        0        
C2        C        0.458333        0.62963        0.231834        0        
C3        C        0.416667        0.648148        0.231834        0        
C4        C        0.458333        0.592592        0.231834        0        
C1        C        0.5        0.018519        0.231834        0        
C2        C        0.541667        0.074075        0.231834        0        
C3        C        0.5        0.092592        0.231834        0        
C4        C        0.541667        0.037037        0.231834        0        
C1        C        0.5        0.12963        0.231834        0        
C2        C        0.541667        0.185185        0.231834        0        
C3        C        0.5        0.203703        0.231834        0        
C4        C        0.541667        0.148148        0.231834        0        
C1        C        0.5        0.24074099999999998        0.231834        0        
C2        C        0.541667        0.296297        0.231834        0        
C3        C        0.5        0.314815        0.231834        0        
C4        C        0.541667        0.259259        0.231834        0        
C1        C        0.5        0.351852        0.231834        0        
C2        C        0.541667        0.407408        0.231834        0        
C3        C        0.5        0.42592500000000005        0.231834        0        
C4        C        0.541667        0.37037        0.231834        0        
C1        C        0.5        0.46296300000000007        0.231834        0        
C2        C        0.541667        0.518519        0.231834        0        
C3        C        0.5        0.537037        0.231834        0        
C4        C        0.541667        0.481481        0.231834        0        
C1        C        0.5        0.574075        0.231834        0        
C2        C        0.541667        0.62963        0.231834        0        
C3        C        0.5        0.648148        0.231834        0        
C4        C        0.541667        0.592592        0.231834        0        
C1        C        0.583333        0.018519        0.231834        0        
C2        C        0.625        0.074075        0.231834        0        
C3        C        0.583333        0.092592        0.231834        0        
C4        C        0.625        0.037037        0.231834        0        
C1        C        0.583333        0.12963        0.231834        0        
C2        C        0.625        0.185185        0.231834        0        
C3        C        0.583333        0.203703        0.231834        0        
C4        C        0.625        0.148148        0.231834        0        
C1        C        0.583333        0.24074099999999998        0.231834        0        
C2        C        0.625        0.296297        0.231834        0        
C3        C        0.583333        0.314815        0.231834        0        
C4        C        0.625        0.259259        0.231834        0        
C1        C        0.583333        0.351852        0.231834        0        
C2        C        0.625        0.407408        0.231834        0        
C3        C        0.583333        0.42592500000000005        0.231834        0        
C4        C        0.625        0.37037        0.231834        0        
C1        C        0.583333        0.46296300000000007        0.231834        0        
C2        C        0.625        0.518519        0.231834        0        
C3        C        0.583333        0.537037        0.231834        0        
C4        C        0.625        0.481481        0.231834        0        
C1        C        0.583333        0.574075        0.231834        0        
C2        C        0.625        0.62963        0.231834        0        
C3        C        0.583333        0.648148        0.231834        0        
C4        C        0.625        0.592592        0.231834        0        
C1        C        0.666667        0.018519        0.231834        0        
C2        C        0.708333        0.074075        0.231834        0        
C3        C        0.666667        0.092592        0.231834        0        
C4        C        0.708333        0.037037        0.231834        0        
C1        C        0.666667        0.12963        0.231834        0        
C2        C        0.708333        0.185185        0.231834        0        
C3        C        0.666667        0.203703        0.231834        0        
C4        C        0.708333        0.148148        0.231834        0        
C1        C        0.666667        0.24074099999999998        0.231834        0        
C2        C        0.708333        0.296297        0.231834        0        
C3        C        0.666667        0.314815        0.231834        0        
C4        C        0.708333        0.259259        0.231834        0        
C1        C        0.666667        0.351852        0.231834        0        
C2        C        0.708333        0.407408        0.231834        0        
C3        C        0.666667        0.42592500000000005        0.231834        0        
C4        C        0.708333        0.37037        0.231834        0        
C1        C        0.666667        0.46296300000000007        0.231834        0        
C2        C        0.708333        0.518519        0.231834        0        
C3        C        0.666667        0.537037        0.231834        0        
C4        C        0.708333        0.481481        0.231834        0        
C1        C        0.666667        0.574075        0.231834        0        
C2        C        0.708333        0.62963        0.231834        0        
C3        C        0.666667        0.648148        0.231834        0        
C4        C        0.708333        0.592592        0.231834        0        
C_FG        C        0.75        0.018519        0.231834        0.2        
C2        C        0.7916670000000001        0.074075        0.231834        0        
C3        C        0.75        0.092592        0.231834        0        
C4        C        0.7916670000000001        0.037037        0.231834        0        
C_FG        C        0.75        0.12963        0.231834        0.2        
C2        C        0.7916670000000001        0.185185        0.231834        0        
C3        C        0.75        0.203703        0.231834        0        
C4        C        0.7916670000000001        0.148148        0.231834        0        
C_FG        C        0.75        0.24074099999999998        0.231834        0.2        
C2        C        0.7916670000000001        0.296297        0.231834        0        
C3        C        0.75        0.314815        0.231834        0        
C4        C        0.7916670000000001        0.259259        0.231834        0        
C_FG        C        0.75        0.351852        0.231834        0.2        
C2        C        0.7916670000000001        0.407408        0.231834        0        
C3        C        0.75        0.42592500000000005        0.231834        0        
C4        C        0.7916670000000001        0.37037        0.231834        0        
C_FG        C        0.75        0.46296300000000007        0.231834        0.2        
C2        C        0.7916670000000001        0.518519        0.231834        0        
C3        C        0.75        0.537037        0.231834        0        
C4        C        0.7916670000000001        0.481481        0.231834        0        
C_FG        C        0.75        0.574075        0.231834        0.2        
C2        C        0.7916670000000001        0.62963        0.231834        0        
C3        C        0.75        0.648148        0.231834        0        
C4        C        0.7916670000000001        0.592592        0.231834        0        
C1        C        0.833333        0.018519        0.231834        0        
C2        C        0.875        0.074075        0.231834        0        
C3        C        0.833333        0.092592        0.231834        0        
C4        C        0.875        0.037037        0.231834        0        
C1        C        0.833333        0.12963        0.231834        0        
C2        C        0.875        0.185185        0.231834        0        
C3        C        0.833333        0.203703        0.231834        0        
C4        C        0.875        0.148148        0.231834        0        
C1        C        0.833333        0.24074099999999998        0.231834        0        
C2        C        0.875        0.296297        0.231834        0        
C3        C        0.833333        0.314815        0.231834        0        
C4        C        0.875        0.259259        0.231834        0        
C1        C        0.833333        0.351852        0.231834        0        
C2        C        0.875        0.407408        0.231834        0        
C3        C        0.833333        0.42592500000000005        0.231834        0        
C4        C        0.875        0.37037        0.231834        0        
C1        C        0.833333        0.46296300000000007        0.231834        0        
C2        C        0.875        0.518519        0.231834        0        
C3        C        0.833333        0.537037        0.231834        0        
C4        C        0.875        0.481481        0.231834        0        
C1        C        0.833333        0.574075        0.231834        0        
C2        C        0.875        0.62963        0.231834        0        
C3        C        0.833333        0.648148        0.231834        0        
C4        C        0.875        0.592592        0.231834        0        
C_FG        C        0.916667        0.018519        0.231834        0.2        
C2        C        0.958333        0.074075        0.231834        0        
C3        C        0.916667        0.092592        0.231834        0        
C4        C        0.958333        0.037037        0.231834        0        
C_FG        C        0.916667        0.12963        0.231834        0.2        
C2        C        0.958333        0.185185        0.231834        0        
C3        C        0.916667        0.203703        0.231834        0        
C4        C        0.958333        0.148148        0.231834        0        
C_FG        C        0.916667        0.24074099999999998        0.231834        0.2        
C2        C        0.958333        0.296297        0.231834        0        
C3        C        0.916667        0.314815        0.231834        0        
C4        C        0.958333        0.259259        0.231834        0        
C_FG        C        0.916667        0.351852        0.231834        0.2        
C2        C        0.958333        0.407408        0.231834        0        
C3        C        0.916667        0.42592500000000005        0.231834        0        
C4        C        0.958333        0.37037        0.231834        0        
C_FG        C        0.916667        0.46296300000000007        0.231834        0.2        
C2        C        0.958333        0.518519        0.231834        0        
C3        C        0.916667        0.537037        0.231834        0        
C4        C        0.958333        0.481481        0.231834        0        
C_FG        C        0.916667        0.574075        0.231834        0.2        
C2        C        0.958333        0.62963        0.231834        0        
C3        C        0.916667        0.648148        0.231834        0        
C4        C        0.958333        0.592592        0.231834        0        
C1        C        0.0        0.685186        0.231834        0        
C1        C        0.083333        0.685186        0.231834        0        
C1        C        0.166667        0.685186        0.231834        0        
C1        C        0.25        0.685186        0.231834        0        
C1        C        0.333333        0.685186        0.231834        0        
C1        C        0.416667        0.685186        0.231834        0        
C1        C        0.5        0.685186        0.231834        0        
C1        C        0.583333        0.685186        0.231834        0        
C1        C        0.666667        0.685186        0.231834        0        
C_FG        C        0.75        0.685186        0.231834        0.2        
C1        C        0.833333        0.685186        0.231834        0        
C_FG        C        0.916667        0.685186        0.231834        0.2        
C2        C        0.041667        0.740741        0.231834        0        
C2        C        0.125        0.740741        0.231834        0        
C2        C        0.208333        0.740741        0.231834        0        
C2        C        0.291667        0.740741        0.231834        0        
C2        C        0.375        0.740741        0.231834        0        
C2        C        0.458333        0.740741        0.231834        0        
C2        C        0.541667        0.740741        0.231834        0        
C2        C        0.625        0.740741        0.231834        0        
C2        C        0.708333        0.740741        0.231834        0        
C2        C        0.7916670000000001        0.740741        0.231834        0        
C2        C        0.875        0.740741        0.231834        0        
C2        C        0.958333        0.740741        0.231834        0        
C3        C        0.0        0.759259        0.231834        0        
C3        C        0.083333        0.759259        0.231834        0        
C3        C        0.166667        0.759259        0.231834        0        
C3        C        0.25        0.759259        0.231834        0        
C3        C        0.333333        0.759259        0.231834        0        
C3        C        0.416667        0.759259        0.231834        0        
C3        C        0.5        0.759259        0.231834        0        
C3        C        0.583333        0.759259        0.231834        0        
C3        C        0.666667        0.759259        0.231834        0        
C3        C        0.75        0.759259        0.231834        0        
C3        C        0.833333        0.759259        0.231834        0        
C3        C        0.916667        0.759259        0.231834        0        
C4        C        0.041667        0.703703        0.231834        0        
C4        C        0.125        0.703703        0.231834        0        
C4        C        0.208333        0.703703        0.231834        0        
C4        C        0.291667        0.703703        0.231834        0        
C4        C        0.375        0.703703        0.231834        0        
C4        C        0.458333        0.703703        0.231834        0        
C4        C        0.541667        0.703703        0.231834        0        
C4        C        0.625        0.703703        0.231834        0        
C4        C        0.708333        0.703703        0.231834        0        
C4        C        0.7916670000000001        0.703703        0.231834        0        
C4        C        0.875        0.703703        0.231834        0        
C4        C        0.958333        0.703703        0.231834        0        
C1        C        0.0        0.796297        0.231834        0        
C1        C        0.083333        0.796297        0.231834        0        
C1        C        0.166667        0.796297        0.231834        0        
C1        C        0.25        0.796297        0.231834        0        
C1        C        0.333333        0.796297        0.231834        0        
C1        C        0.416667        0.796297        0.231834        0        
C1        C        0.5        0.796297        0.231834        0        
C1        C        0.583333        0.796297        0.231834        0        
C1        C        0.666667        0.796297        0.231834        0        
C_FG        C        0.75        0.796297        0.231834        0.2        
C1        C        0.833333        0.796297        0.231834        0        
C_FG        C        0.916667        0.796297        0.231834        0.2        
C2        C        0.041667        0.851852        0.231834        0        
C2        C        0.125        0.851852        0.231834        0        
C2        C        0.208333        0.851852        0.231834        0        
C2        C        0.291667        0.851852        0.231834        0        
C2        C        0.375        0.851852        0.231834        0        
C2        C        0.458333        0.851852        0.231834        0        
C2        C        0.541667        0.851852        0.231834        0        
C2        C        0.625        0.851852        0.231834        0        
C2        C        0.708333        0.851852        0.231834        0        
C2        C        0.7916670000000001        0.851852        0.231834        0        
C2        C        0.875        0.851852        0.231834        0        
C2        C        0.958333        0.851852        0.231834        0        
C3        C        0.0        0.87037        0.231834        0        
C3        C        0.083333        0.87037        0.231834        0        
C3        C        0.166667        0.87037        0.231834        0        
C3        C        0.25        0.87037        0.231834        0        
C3        C        0.333333        0.87037        0.231834        0        
C3        C        0.416667        0.87037        0.231834        0        
C3        C        0.5        0.87037        0.231834        0        
C3        C        0.583333        0.87037        0.231834        0        
C3        C        0.666667        0.87037        0.231834        0        
C3        C        0.75        0.87037        0.231834        0        
C3        C        0.833333        0.87037        0.231834        0        
C3        C        0.916667        0.87037        0.231834        0        
C4        C        0.041667        0.814814        0.231834        0        
C4        C        0.125        0.814814        0.231834        0        
C4        C        0.208333        0.814814        0.231834        0        
C4        C        0.291667        0.814814        0.231834        0        
C4        C        0.375        0.814814        0.231834        0        
C4        C        0.458333        0.814814        0.231834        0        
C4        C        0.541667        0.814814        0.231834        0        
C4        C        0.625        0.814814        0.231834        0        
C4        C        0.708333        0.814814        0.231834        0        
C4        C        0.7916670000000001        0.814814        0.231834        0        
C4        C        0.875        0.814814        0.231834        0        
C4        C        0.958333        0.814814        0.231834        0        
C1        C        0.0        0.907408        0.231834        0        
C1        C        0.083333        0.907408        0.231834        0        
C1        C        0.166667        0.907408        0.231834        0        
C1        C        0.25        0.907408        0.231834        0        
C1        C        0.333333        0.907408        0.231834        0        
C1        C        0.416667        0.907408        0.231834        0        
C1        C        0.5        0.907408        0.231834        0        
C1        C        0.583333        0.907408        0.231834        0        
C1        C        0.666667        0.907408        0.231834        0        
C_FG        C        0.75        0.907408        0.231834        0.2        
C1        C        0.833333        0.907408        0.231834        0        
C_FG        C        0.916667        0.907408        0.231834        0.2        
C2        C        0.041667        0.962963        0.231834        0        
C2        C        0.125        0.962963        0.231834        0        
C2        C        0.208333        0.962963        0.231834        0        
C2        C        0.291667        0.962963        0.231834        0        
C2        C        0.375        0.962963        0.231834        0        
C2        C        0.458333        0.962963        0.231834        0        
C2        C        0.541667        0.962963        0.231834        0        
C2        C        0.625        0.962963        0.231834        0        
C2        C        0.708333        0.962963        0.231834        0        
C2        C        0.7916670000000001        0.962963        0.231834        0        
C2        C        0.875        0.962963        0.231834        0        
C2        C        0.958333        0.962963        0.231834        0        
C3        C        0.0        0.9814809999999999        0.231834        0        
C3        C        0.083333        0.9814809999999999        0.231834        0        
C3        C        0.166667        0.9814809999999999        0.231834        0        
C3        C        0.25        0.9814809999999999        0.231834        0        
C3        C        0.333333        0.9814809999999999        0.231834        0        
C3        C        0.416667        0.9814809999999999        0.231834        0        
C3        C        0.5        0.9814809999999999        0.231834        0        
C3        C        0.583333        0.9814809999999999        0.231834        0        
C3        C        0.666667        0.9814809999999999        0.231834        0        
C3        C        0.75        0.9814809999999999        0.231834        0        
C3        C        0.833333        0.9814809999999999        0.231834        0        
C3        C        0.916667        0.9814809999999999        0.231834        0        
C4        C        0.041667        0.925925        0.231834        0        
C4        C        0.125        0.925925        0.231834        0        
C4        C        0.208333        0.925925        0.231834        0        
C4        C        0.291667        0.925925        0.231834        0        
C4        C        0.375        0.925925        0.231834        0        
C4        C        0.458333        0.925925        0.231834        0        
C4        C        0.541667        0.925925        0.231834        0        
C4        C        0.625        0.925925        0.231834        0        
C4        C        0.708333        0.925925        0.231834        0        
C4        C        0.7916670000000001        0.925925        0.231834        0        
C4        C        0.875        0.925925        0.231834        0        
C4        C        0.958333        0.925925        0.231834        0        
C1        C        0.0        0.018519        0.768166        0        
C2        C        0.041667        0.074075        0.768166        0        
C3        C        0.0        0.092592        0.768166        0        
C4        C        0.041667        0.037037        0.768166        0        
C1        C        0.0        0.12963        0.768166        0        
C2        C        0.041667        0.185185        0.768166        0        
C3        C        0.0        0.203703        0.768166        0        
C4        C        0.041667        0.148148        0.768166        0        
C1        C        0.0        0.24074099999999998        0.768166        0        
C2        C        0.041667        0.296297        0.768166        0        
C3        C        0.0        0.314815        0.768166        0        
C4        C        0.041667        0.259259        0.768166        0        
C1        C        0.0        0.351852        0.768166        0        
C2        C        0.041667        0.407408        0.768166        0        
C3        C        0.0        0.42592500000000005        0.768166        0        
C4        C        0.041667        0.37037        0.768166        0        
C1        C        0.0        0.46296300000000007        0.768166        0        
C2        C        0.041667        0.518519        0.768166        0        
C3        C        0.0        0.537037        0.768166        0        
C4        C        0.041667        0.481481        0.768166        0        
C1        C        0.0        0.574075        0.768166        0        
C2        C        0.041667        0.62963        0.768166        0        
C3        C        0.0        0.648148        0.768166        0        
C4        C        0.041667        0.592592        0.768166        0        
C1        C        0.083333        0.018519        0.768166        0        
C2        C        0.125        0.074075        0.768166        0        
C3        C        0.083333        0.092592        0.768166        0        
C4        C        0.125        0.037037        0.768166        0        
C1        C        0.083333        0.12963        0.768166        0        
C2        C        0.125        0.185185        0.768166        0        
C3        C        0.083333        0.203703        0.768166        0        
C4        C        0.125        0.148148        0.768166        0        
C1        C        0.083333        0.24074099999999998        0.768166        0        
C2        C        0.125        0.296297        0.768166        0        
C3        C        0.083333        0.314815        0.768166        0        
C4        C        0.125        0.259259        0.768166        0        
C1        C        0.083333        0.351852        0.768166        0        
C2        C        0.125        0.407408        0.768166        0        
C3        C        0.083333        0.42592500000000005        0.768166        0        
C4        C        0.125        0.37037        0.768166        0        
C1        C        0.083333        0.46296300000000007        0.768166        0        
C2        C        0.125        0.518519        0.768166        0        
C3        C        0.083333        0.537037        0.768166        0        
C4        C        0.125        0.481481        0.768166        0        
C1        C        0.083333        0.574075        0.768166        0        
C2        C        0.125        0.62963        0.768166        0        
C3        C        0.083333        0.648148        0.768166        0        
C4        C        0.125        0.592592        0.768166        0        
C1        C        0.166667        0.018519        0.768166        0        
C2        C        0.208333        0.074075        0.768166        0        
C3        C        0.166667        0.092592        0.768166        0        
C4        C        0.208333        0.037037        0.768166        0        
C1        C        0.166667        0.12963        0.768166        0        
C2        C        0.208333        0.185185        0.768166        0        
C3        C        0.166667        0.203703        0.768166        0        
C4        C        0.208333        0.148148        0.768166        0        
C1        C        0.166667        0.24074099999999998        0.768166        0        
C2        C        0.208333        0.296297        0.768166        0        
C3        C        0.166667        0.314815        0.768166        0        
C4        C        0.208333        0.259259        0.768166        0        
C1        C        0.166667        0.351852        0.768166        0        
C2        C        0.208333        0.407408        0.768166        0        
C3        C        0.166667        0.42592500000000005        0.768166        0        
C4        C        0.208333        0.37037        0.768166        0        
C1        C        0.166667        0.46296300000000007        0.768166        0        
C2        C        0.208333        0.518519        0.768166        0        
C3        C        0.166667        0.537037        0.768166        0        
C4        C        0.208333        0.481481        0.768166        0        
C1        C        0.166667        0.574075        0.768166        0        
C2        C        0.208333        0.62963        0.768166        0        
C3        C        0.166667        0.648148        0.768166        0        
C4        C        0.208333        0.592592        0.768166        0        
C1        C        0.25        0.018519        0.768166        0        
C2        C        0.291667        0.074075        0.768166        0        
C3        C        0.25        0.092592        0.768166        0        
C4        C        0.291667        0.037037        0.768166        0        
C1        C        0.25        0.12963        0.768166        0        
C2        C        0.291667        0.185185        0.768166        0        
C3        C        0.25        0.203703        0.768166        0        
C4        C        0.291667        0.148148        0.768166        0        
C1        C        0.25        0.24074099999999998        0.768166        0        
C2        C        0.291667        0.296297        0.768166        0        
C3        C        0.25        0.314815        0.768166        0        
C4        C        0.291667        0.259259        0.768166        0        
C1        C        0.25        0.351852        0.768166        0        
C2        C        0.291667        0.407408        0.768166        0        
C3        C        0.25        0.42592500000000005        0.768166        0        
C4        C        0.291667        0.37037        0.768166        0        
C1        C        0.25        0.46296300000000007        0.768166        0        
C2        C        0.291667        0.518519        0.768166        0        
C3        C        0.25        0.537037        0.768166        0        
C4        C        0.291667        0.481481        0.768166        0        
C1        C        0.25        0.574075        0.768166        0        
C2        C        0.291667        0.62963        0.768166        0        
C3        C        0.25        0.648148        0.768166        0        
C4        C        0.291667        0.592592        0.768166        0        
C1        C        0.333333        0.018519        0.768166        0        
C2        C        0.375        0.074075        0.768166        0        
C3        C        0.333333        0.092592        0.768166        0        
C4        C        0.375        0.037037        0.768166        0        
C1        C        0.333333        0.12963        0.768166        0        
C2        C        0.375        0.185185        0.768166        0        
C3        C        0.333333        0.203703        0.768166        0        
C4        C        0.375        0.148148        0.768166        0        
C1        C        0.333333        0.24074099999999998        0.768166        0        
C2        C        0.375        0.296297        0.768166        0        
C3        C        0.333333        0.314815        0.768166        0        
C4        C        0.375        0.259259        0.768166        0        
C1        C        0.333333        0.351852        0.768166        0        
C2        C        0.375        0.407408        0.768166        0        
C3        C        0.333333        0.42592500000000005        0.768166        0        
C4        C        0.375        0.37037        0.768166        0        
C1        C        0.333333        0.46296300000000007        0.768166        0        
C2        C        0.375        0.518519        0.768166        0        
C3        C        0.333333        0.537037        0.768166        0        
C4        C        0.375        0.481481        0.768166        0        
C1        C        0.333333        0.574075        0.768166        0        
C2        C        0.375        0.62963        0.768166        0        
C3        C        0.333333        0.648148        0.768166        0        
C4        C        0.375        0.592592        0.768166        0        
C1        C        0.416667        0.018519        0.768166        0        
C2        C        0.458333        0.074075        0.768166        0        
C3        C        0.416667        0.092592        0.768166        0        
C4        C        0.458333        0.037037        0.768166        0        
C1        C        0.416667        0.12963        0.768166        0        
C2        C        0.458333        0.185185        0.768166        0        
C3        C        0.416667        0.203703        0.768166        0        
C4        C        0.458333        0.148148        0.768166        0        
C1        C        0.416667        0.24074099999999998        0.768166        0        
C2        C        0.458333        0.296297        0.768166        0        
C3        C        0.416667        0.314815        0.768166        0        
C4        C        0.458333        0.259259        0.768166        0        
C1        C        0.416667        0.351852        0.768166        0        
C2        C        0.458333        0.407408        0.768166        0        
C3        C        0.416667        0.42592500000000005        0.768166        0        
C4        C        0.458333        0.37037        0.768166        0        
C1        C        0.416667        0.46296300000000007        0.768166        0        
C2        C        0.458333        0.518519        0.768166        0        
C3        C        0.416667        0.537037        0.768166        0        
C4        C        0.458333        0.481481        0.768166        0        
C1        C        0.416667        0.574075        0.768166        0        
C2        C        0.458333        0.62963        0.768166        0        
C3        C        0.416667        0.648148        0.768166        0        
C4        C        0.458333        0.592592        0.768166        0        
C1        C        0.5        0.018519        0.768166        0        
C2        C        0.541667        0.074075        0.768166        0        
C3        C        0.5        0.092592        0.768166        0        
C4        C        0.541667        0.037037        0.768166        0        
C1        C        0.5        0.12963        0.768166        0        
C2        C        0.541667        0.185185        0.768166        0        
C3        C        0.5        0.203703        0.768166        0        
C4        C        0.541667        0.148148        0.768166        0        
C1        C        0.5        0.24074099999999998        0.768166        0        
C2        C        0.541667        0.296297        0.768166        0        
C3        C        0.5        0.314815        0.768166        0        
C4        C        0.541667        0.259259        0.768166        0        
C1        C        0.5        0.351852        0.768166        0        
C2        C        0.541667        0.407408        0.768166        0        
C3        C        0.5        0.42592500000000005        0.768166        0        
C4        C        0.541667        0.37037        0.768166        0        
C1        C        0.5        0.46296300000000007        0.768166        0        
C2        C        0.541667        0.518519        0.768166        0        
C3        C        0.5        0.537037        0.768166        0        
C4        C        0.541667        0.481481        0.768166        0        
C1        C        0.5        0.574075        0.768166        0        
C2        C        0.541667        0.62963        0.768166        0        
C3        C        0.5        0.648148        0.768166        0        
C4        C        0.541667        0.592592        0.768166        0        
C1        C        0.583333        0.018519        0.768166        0        
C2        C        0.625        0.074075        0.768166        0        
C3        C        0.583333        0.092592        0.768166        0        
C4        C        0.625        0.037037        0.768166        0        
C1        C        0.583333        0.12963        0.768166        0        
C2        C        0.625        0.185185        0.768166        0        
C3        C        0.583333        0.203703        0.768166        0        
C4        C        0.625        0.148148        0.768166        0        
C1        C        0.583333        0.24074099999999998        0.768166        0        
C2        C        0.625        0.296297        0.768166        0        
C3        C        0.583333        0.314815        0.768166        0        
C4        C        0.625        0.259259        0.768166        0        
C1        C        0.583333        0.351852        0.768166        0        
C2        C        0.625        0.407408        0.768166        0        
C3        C        0.583333        0.42592500000000005        0.768166        0        
C4        C        0.625        0.37037        0.768166        0        
C1        C        0.583333        0.46296300000000007        0.768166        0        
C2        C        0.625        0.518519        0.768166        0        
C3        C        0.583333        0.537037        0.768166        0        
C4        C        0.625        0.481481        0.768166        0        
C1        C        0.583333        0.574075        0.768166        0        
C2        C        0.625        0.62963        0.768166        0        
C3        C        0.583333        0.648148        0.768166        0        
C4        C        0.625        0.592592        0.768166        0        
C1        C        0.666667        0.018519        0.768166        0        
C2        C        0.708333        0.074075        0.768166        0        
C3        C        0.666667        0.092592        0.768166        0        
C4        C        0.708333        0.037037        0.768166        0        
C1        C        0.666667        0.12963        0.768166        0        
C2        C        0.708333        0.185185        0.768166        0        
C3        C        0.666667        0.203703        0.768166        0        
C4        C        0.708333        0.148148        0.768166        0        
C1        C        0.666667        0.24074099999999998        0.768166        0        
C2        C        0.708333        0.296297        0.768166        0        
C3        C        0.666667        0.314815        0.768166        0        
C4        C        0.708333        0.259259        0.768166        0        
C1        C        0.666667        0.351852        0.768166        0        
C2        C        0.708333        0.407408        0.768166        0        
C3        C        0.666667        0.42592500000000005        0.768166        0        
C4        C        0.708333        0.37037        0.768166        0        
C1        C        0.666667        0.46296300000000007        0.768166        0        
C2        C        0.708333        0.518519        0.768166        0        
C3        C        0.666667        0.537037        0.768166        0        
C4        C        0.708333        0.481481        0.768166        0        
C1        C        0.666667        0.574075        0.768166        0        
C2        C        0.708333        0.62963        0.768166        0        
C3        C        0.666667        0.648148        0.768166        0        
C4        C        0.708333        0.592592        0.768166        0        
C_FG        C        0.75        0.018519        0.768166        0.2        
C2        C        0.7916670000000001        0.074075        0.768166        0        
C3        C        0.75        0.092592        0.768166        0        
C4        C        0.7916670000000001        0.037037        0.768166        0        
C_FG        C        0.75        0.12963        0.768166        0.2        
C2        C        0.7916670000000001        0.185185        0.768166        0        
C3        C        0.75        0.203703        0.768166        0        
C4        C        0.7916670000000001        0.148148        0.768166        0        
C_FG        C        0.75        0.24074099999999998        0.768166        0.2        
C2        C        0.7916670000000001        0.296297        0.768166        0        
C3        C        0.75        0.314815        0.768166        0        
C4        C        0.7916670000000001        0.259259        0.768166        0        
C_FG        C        0.75        0.351852        0.768166        0.2        
C2        C        0.7916670000000001        0.407408        0.768166        0        
C3        C        0.75        0.42592500000000005        0.768166        0        
C4        C        0.7916670000000001        0.37037        0.768166        0        
C_FG        C        0.75        0.46296300000000007        0.768166        0.2        
C2        C        0.7916670000000001        0.518519        0.768166        0        
C3        C        0.75        0.537037        0.768166        0        
C4        C        0.7916670000000001        0.481481        0.768166        0        
C_FG        C        0.75        0.574075        0.768166        0.2        
C2        C        0.7916670000000001        0.62963        0.768166        0        
C3        C        0.75        0.648148        0.768166        0        
C4        C        0.7916670000000001        0.592592        0.768166        0        
C1        C        0.833333        0.018519        0.768166        0        
C2        C        0.875        0.074075        0.768166        0        
C3        C        0.833333        0.092592        0.768166        0        
C4        C        0.875        0.037037        0.768166        0        
C1        C        0.833333        0.12963        0.768166        0        
C2        C        0.875        0.185185        0.768166        0        
C3        C        0.833333        0.203703        0.768166        0        
C4        C        0.875        0.148148        0.768166        0        
C1        C        0.833333        0.24074099999999998        0.768166        0        
C2        C        0.875        0.296297        0.768166        0        
C3        C        0.833333        0.314815        0.768166        0        
C4        C        0.875        0.259259        0.768166        0        
C1        C        0.833333        0.351852        0.768166        0        
C2        C        0.875        0.407408        0.768166        0        
C3        C        0.833333        0.42592500000000005        0.768166        0        
C4        C        0.875        0.37037        0.768166        0        
C1        C        0.833333        0.46296300000000007        0.768166        0        
C2        C        0.875        0.518519        0.768166        0        
C3        C        0.833333        0.537037        0.768166        0        
C4        C        0.875        0.481481        0.768166        0        
C1        C        0.833333        0.574075        0.768166        0        
C2        C        0.875        0.62963        0.768166        0        
C3        C        0.833333        0.648148        0.768166        0        
C4        C        0.875        0.592592        0.768166        0        
C_FG        C        0.916667        0.018519        0.768166        0.2        
C2        C        0.958333        0.074075        0.768166        0        
C3        C        0.916667        0.092592        0.768166        0        
C4        C        0.958333        0.037037        0.768166        0        
C_FG        C        0.916667        0.12963        0.768166        0.2        
C2        C        0.958333        0.185185        0.768166        0        
C3        C        0.916667        0.203703        0.768166        0        
C4        C        0.958333        0.148148        0.768166        0        
C_FG        C        0.916667        0.24074099999999998        0.768166        0.2        
C2        C        0.958333        0.296297        0.768166        0        
C3        C        0.916667        0.314815        0.768166        0        
C4        C        0.958333        0.259259        0.768166        0        
C_FG        C        0.916667        0.351852        0.768166        0.2        
C2        C        0.958333        0.407408        0.768166        0        
C3        C        0.916667        0.42592500000000005        0.768166        0        
C4        C        0.958333        0.37037        0.768166        0        
C_FG        C        0.916667        0.46296300000000007        0.768166        0.2        
C2        C        0.958333        0.518519        0.768166        0        
C3        C        0.916667        0.537037        0.768166        0        
C4        C        0.958333        0.481481        0.768166        0        
C_FG        C        0.916667        0.574075        0.768166        0.2        
C2        C        0.958333        0.62963        0.768166        0        
C3        C        0.916667        0.648148        0.768166        0        
C4        C        0.958333        0.592592        0.768166        0        
C1        C        0.0        0.685186        0.768166        0        
C1        C        0.083333        0.685186        0.768166        0        
C1        C        0.166667        0.685186        0.768166        0        
C1        C        0.25        0.685186        0.768166        0        
C1        C        0.333333        0.685186        0.768166        0        
C1        C        0.416667        0.685186        0.768166        0        
C1        C        0.5        0.685186        0.768166        0        
C1        C        0.583333        0.685186        0.768166        0        
C1        C        0.666667        0.685186        0.768166        0        
C_FG        C        0.75        0.685186        0.768166        0.2        
C1        C        0.833333        0.685186        0.768166        0        
C_FG        C        0.916667        0.685186        0.768166        0.2        
C2        C        0.041667        0.740741        0.768166        0        
C2        C        0.125        0.740741        0.768166        0        
C2        C        0.208333        0.740741        0.768166        0        
C2        C        0.291667        0.740741        0.768166        0        
C2        C        0.375        0.740741        0.768166        0        
C2        C        0.458333        0.740741        0.768166        0        
C2        C        0.541667        0.740741        0.768166        0        
C2        C        0.625        0.740741        0.768166        0        
C2        C        0.708333        0.740741        0.768166        0        
C2        C        0.7916670000000001        0.740741        0.768166        0        
C2        C        0.875        0.740741        0.768166        0        
C2        C        0.958333        0.740741        0.768166        0        
C3        C        0.0        0.759259        0.768166        0        
C3        C        0.083333        0.759259        0.768166        0        
C3        C        0.166667        0.759259        0.768166        0        
C3        C        0.25        0.759259        0.768166        0        
C3        C        0.333333        0.759259        0.768166        0        
C3        C        0.416667        0.759259        0.768166        0        
C3        C        0.5        0.759259        0.768166        0        
C3        C        0.583333        0.759259        0.768166        0        
C3        C        0.666667        0.759259        0.768166        0        
C3        C        0.75        0.759259        0.768166        0        
C3        C        0.833333        0.759259        0.768166        0        
C3        C        0.916667        0.759259        0.768166        0        
C4        C        0.041667        0.703703        0.768166        0        
C4        C        0.125        0.703703        0.768166        0        
C4        C        0.208333        0.703703        0.768166        0        
C4        C        0.291667        0.703703        0.768166        0        
C4        C        0.375        0.703703        0.768166        0        
C4        C        0.458333        0.703703        0.768166        0        
C4        C        0.541667        0.703703        0.768166        0        
C4        C        0.625        0.703703        0.768166        0        
C4        C        0.708333        0.703703        0.768166        0        
C4        C        0.7916670000000001        0.703703        0.768166        0        
C4        C        0.875        0.703703        0.768166        0        
C4        C        0.958333        0.703703        0.768166        0        
C1        C        0.0        0.796297        0.768166        0        
C1        C        0.083333        0.796297        0.768166        0        
C1        C        0.166667        0.796297        0.768166        0        
C1        C        0.25        0.796297        0.768166        0        
C1        C        0.333333        0.796297        0.768166        0        
C1        C        0.416667        0.796297        0.768166        0        
C1        C        0.5        0.796297        0.768166        0        
C1        C        0.583333        0.796297        0.768166        0        
C1        C        0.666667        0.796297        0.768166        0        
C_FG        C        0.75        0.796297        0.768166        0.2        
C1        C        0.833333        0.796297        0.768166        0        
C_FG        C        0.916667        0.796297        0.768166        0.2        
C2        C        0.041667        0.851852        0.768166        0        
C2        C        0.125        0.851852        0.768166        0        
C2        C        0.208333        0.851852        0.768166        0        
C2        C        0.291667        0.851852        0.768166        0        
C2        C        0.375        0.851852        0.768166        0        
C2        C        0.458333        0.851852        0.768166        0        
C2        C        0.541667        0.851852        0.768166        0        
C2        C        0.625        0.851852        0.768166        0        
C2        C        0.708333        0.851852        0.768166        0        
C2        C        0.7916670000000001        0.851852        0.768166        0        
C2        C        0.875        0.851852        0.768166        0        
C2        C        0.958333        0.851852        0.768166        0        
C3        C        0.0        0.87037        0.768166        0        
C3        C        0.083333        0.87037        0.768166        0        
C3        C        0.166667        0.87037        0.768166        0        
C3        C        0.25        0.87037        0.768166        0        
C3        C        0.333333        0.87037        0.768166        0        
C3        C        0.416667        0.87037        0.768166        0        
C3        C        0.5        0.87037        0.768166        0        
C3        C        0.583333        0.87037        0.768166        0        
C3        C        0.666667        0.87037        0.768166        0        
C3        C        0.75        0.87037        0.768166        0        
C3        C        0.833333        0.87037        0.768166        0        
C3        C        0.916667        0.87037        0.768166        0        
C4        C        0.041667        0.814814        0.768166        0        
C4        C        0.125        0.814814        0.768166        0        
C4        C        0.208333        0.814814        0.768166        0        
C4        C        0.291667        0.814814        0.768166        0        
C4        C        0.375        0.814814        0.768166        0        
C4        C        0.458333        0.814814        0.768166        0        
C4        C        0.541667        0.814814        0.768166        0        
C4        C        0.625        0.814814        0.768166        0        
C4        C        0.708333        0.814814        0.768166        0        
C4        C        0.7916670000000001        0.814814        0.768166        0        
C4        C        0.875        0.814814        0.768166        0        
C4        C        0.958333        0.814814        0.768166        0        
C1        C        0.0        0.907408        0.768166        0        
C1        C        0.083333        0.907408        0.768166        0        
C1        C        0.166667        0.907408        0.768166        0        
C1        C        0.25        0.907408        0.768166        0        
C1        C        0.333333        0.907408        0.768166        0        
C1        C        0.416667        0.907408        0.768166        0        
C1        C        0.5        0.907408        0.768166        0        
C1        C        0.583333        0.907408        0.768166        0        
C1        C        0.666667        0.907408        0.768166        0        
C_FG        C        0.75        0.907408        0.768166        0.2        
C1        C        0.833333        0.907408        0.768166        0        
C_FG        C        0.916667        0.907408        0.768166        0.2        
C2        C        0.041667        0.962963        0.768166        0        
C2        C        0.125        0.962963        0.768166        0        
C2        C        0.208333        0.962963        0.768166        0        
C2        C        0.291667        0.962963        0.768166        0        
C2        C        0.375        0.962963        0.768166        0        
C2        C        0.458333        0.962963        0.768166        0        
C2        C        0.541667        0.962963        0.768166        0        
C2        C        0.625        0.962963        0.768166        0        
C2        C        0.708333        0.962963        0.768166        0        
C2        C        0.7916670000000001        0.962963        0.768166        0        
C2        C        0.875        0.962963        0.768166        0        
C2        C        0.958333        0.962963        0.768166        0        
C3        C        0.0        0.9814809999999999        0.768166        0        
C3        C        0.083333        0.9814809999999999        0.768166        0        
C3        C        0.166667        0.9814809999999999        0.768166        0        
C3        C        0.25        0.9814809999999999        0.768166        0        
C3        C        0.333333        0.9814809999999999        0.768166        0        
C3        C        0.416667        0.9814809999999999        0.768166        0        
C3        C        0.5        0.9814809999999999        0.768166        0        
C3        C        0.583333        0.9814809999999999        0.768166        0        
C3        C        0.666667        0.9814809999999999        0.768166        0        
C3        C        0.75        0.9814809999999999        0.768166        0        
C3        C        0.833333        0.9814809999999999        0.768166        0        
C3        C        0.916667        0.9814809999999999        0.768166        0        
C4        C        0.041667        0.925925        0.768166        0        
C4        C        0.125        0.925925        0.768166        0        
C4        C        0.208333        0.925925        0.768166        0        
C4        C        0.291667        0.925925        0.768166        0        
C4        C        0.375        0.925925        0.768166        0        
C4        C        0.458333        0.925925        0.768166        0        
C4        C        0.541667        0.925925        0.768166        0        
C4        C        0.625        0.925925        0.768166        0        
C4        C        0.708333        0.925925        0.768166        0        
C4        C        0.7916670000000001        0.925925        0.768166        0        
C4        C        0.875        0.925925        0.768166        0        
C4        C        0.958333        0.925925        0.768166        0        
C1        C        0.0        0.018519        0.884083        0        
C2        C        0.041667        0.074075        0.884083        0        
C3        C        0.0        0.092592        0.884083        0        
C4        C        0.041667        0.037037        0.884083        0        
C1        C        0.0        0.12963        0.884083        0        
C2        C        0.041667        0.185185        0.884083        0        
C3        C        0.0        0.203703        0.884083        0        
C4        C        0.041667        0.148148        0.884083        0        
C1        C        0.0        0.24074099999999998        0.884083        0        
C2        C        0.041667        0.296297        0.884083        0        
C3        C        0.0        0.314815        0.884083        0        
C4        C        0.041667        0.259259        0.884083        0        
C1        C        0.0        0.351852        0.884083        0        
C2        C        0.041667        0.407408        0.884083        0        
C3        C        0.0        0.42592500000000005        0.884083        0        
C4        C        0.041667        0.37037        0.884083        0        
C1        C        0.0        0.46296300000000007        0.884083        0        
C2        C        0.041667        0.518519        0.884083        0        
C3        C        0.0        0.537037        0.884083        0        
C4        C        0.041667        0.481481        0.884083        0        
C1        C        0.0        0.574075        0.884083        0        
C2        C        0.041667        0.62963        0.884083        0        
C3        C        0.0        0.648148        0.884083        0        
C4        C        0.041667        0.592592        0.884083        0        
C1        C        0.083333        0.018519        0.884083        0        
C2        C        0.125        0.074075        0.884083        0        
C3        C        0.083333        0.092592        0.884083        0        
C4        C        0.125        0.037037        0.884083        0        
C1        C        0.083333        0.12963        0.884083        0        
C2        C        0.125        0.185185        0.884083        0        
C3        C        0.083333        0.203703        0.884083        0        
C4        C        0.125        0.148148        0.884083        0        
C1        C        0.083333        0.24074099999999998        0.884083        0        
C2        C        0.125        0.296297        0.884083        0        
C3        C        0.083333        0.314815        0.884083        0        
C4        C        0.125        0.259259        0.884083        0        
C1        C        0.083333        0.351852        0.884083        0        
C2        C        0.125        0.407408        0.884083        0        
C3        C        0.083333        0.42592500000000005        0.884083        0        
C4        C        0.125        0.37037        0.884083        0        
C1        C        0.083333        0.46296300000000007        0.884083        0        
C2        C        0.125        0.518519        0.884083        0        
C3        C        0.083333        0.537037        0.884083        0        
C4        C        0.125        0.481481        0.884083        0        
C1        C        0.083333        0.574075        0.884083        0        
C2        C        0.125        0.62963        0.884083        0        
C3        C        0.083333        0.648148        0.884083        0        
C4        C        0.125        0.592592        0.884083        0        
C1        C        0.166667        0.018519        0.884083        0        
C2        C        0.208333        0.074075        0.884083        0        
C3        C        0.166667        0.092592        0.884083        0        
C4        C        0.208333        0.037037        0.884083        0        
C1        C        0.166667        0.12963        0.884083        0        
C2        C        0.208333        0.185185        0.884083        0        
C3        C        0.166667        0.203703        0.884083        0        
C4        C        0.208333        0.148148        0.884083        0        
C1        C        0.166667        0.24074099999999998        0.884083        0        
C2        C        0.208333        0.296297        0.884083        0        
C3        C        0.166667        0.314815        0.884083        0        
C4        C        0.208333        0.259259        0.884083        0        
C1        C        0.166667        0.351852        0.884083        0        
C2        C        0.208333        0.407408        0.884083        0        
C3        C        0.166667        0.42592500000000005        0.884083        0        
C4        C        0.208333        0.37037        0.884083        0        
C1        C        0.166667        0.46296300000000007        0.884083        0        
C2        C        0.208333        0.518519        0.884083        0        
C3        C        0.166667        0.537037        0.884083        0        
C4        C        0.208333        0.481481        0.884083        0        
C1        C        0.166667        0.574075        0.884083        0        
C2        C        0.208333        0.62963        0.884083        0        
C3        C        0.166667        0.648148        0.884083        0        
C4        C        0.208333        0.592592        0.884083        0        
C1        C        0.25        0.018519        0.884083        0        
C2        C        0.291667        0.074075        0.884083        0        
C3        C        0.25        0.092592        0.884083        0        
C4        C        0.291667        0.037037        0.884083        0        
C1        C        0.25        0.12963        0.884083        0        
C2        C        0.291667        0.185185        0.884083        0        
C3        C        0.25        0.203703        0.884083        0        
C4        C        0.291667        0.148148        0.884083        0        
C1        C        0.25        0.24074099999999998        0.884083        0        
C2        C        0.291667        0.296297        0.884083        0        
C3        C        0.25        0.314815        0.884083        0        
C4        C        0.291667        0.259259        0.884083        0        
C1        C        0.25        0.351852        0.884083        0        
C2        C        0.291667        0.407408        0.884083        0        
C3        C        0.25        0.42592500000000005        0.884083        0        
C4        C        0.291667        0.37037        0.884083        0        
C1        C        0.25        0.46296300000000007        0.884083        0        
C2        C        0.291667        0.518519        0.884083        0        
C3        C        0.25        0.537037        0.884083        0        
C4        C        0.291667        0.481481        0.884083        0        
C1        C        0.25        0.574075        0.884083        0        
C2        C        0.291667        0.62963        0.884083        0        
C3        C        0.25        0.648148        0.884083        0        
C4        C        0.291667        0.592592        0.884083        0        
C1        C        0.333333        0.018519        0.884083        0        
C2        C        0.375        0.074075        0.884083        0        
C3        C        0.333333        0.092592        0.884083        0        
C4        C        0.375        0.037037        0.884083        0        
C1        C        0.333333        0.12963        0.884083        0        
C2        C        0.375        0.185185        0.884083        0        
C3        C        0.333333        0.203703        0.884083        0        
C4        C        0.375        0.148148        0.884083        0        
C1        C        0.333333        0.24074099999999998        0.884083        0        
C2        C        0.375        0.296297        0.884083        0        
C3        C        0.333333        0.314815        0.884083        0        
C4        C        0.375        0.259259        0.884083        0        
C1        C        0.333333        0.351852        0.884083        0        
C2        C        0.375        0.407408        0.884083        0        
C3        C        0.333333        0.42592500000000005        0.884083        0        
C4        C        0.375        0.37037        0.884083        0        
C1        C        0.333333        0.46296300000000007        0.884083        0        
C2        C        0.375        0.518519        0.884083        0        
C3        C        0.333333        0.537037        0.884083        0        
C4        C        0.375        0.481481        0.884083        0        
C1        C        0.333333        0.574075        0.884083        0        
C2        C        0.375        0.62963        0.884083        0        
C3        C        0.333333        0.648148        0.884083        0        
C4        C        0.375        0.592592        0.884083        0        
C1        C        0.416667        0.018519        0.884083        0        
C2        C        0.458333        0.074075        0.884083        0        
C3        C        0.416667        0.092592        0.884083        0        
C4        C        0.458333        0.037037        0.884083        0        
C1        C        0.416667        0.12963        0.884083        0        
C2        C        0.458333        0.185185        0.884083        0        
C3        C        0.416667        0.203703        0.884083        0        
C4        C        0.458333        0.148148        0.884083        0        
C1        C        0.416667        0.24074099999999998        0.884083        0        
C2        C        0.458333        0.296297        0.884083        0        
C3        C        0.416667        0.314815        0.884083        0        
C4        C        0.458333        0.259259        0.884083        0        
C1        C        0.416667        0.351852        0.884083        0        
C2        C        0.458333        0.407408        0.884083        0        
C3        C        0.416667        0.42592500000000005        0.884083        0        
C4        C        0.458333        0.37037        0.884083        0        
C1        C        0.416667        0.46296300000000007        0.884083        0        
C2        C        0.458333        0.518519        0.884083        0        
C3        C        0.416667        0.537037        0.884083        0        
C4        C        0.458333        0.481481        0.884083        0        
C1        C        0.416667        0.574075        0.884083        0        
C2        C        0.458333        0.62963        0.884083        0        
C3        C        0.416667        0.648148        0.884083        0        
C4        C        0.458333        0.592592        0.884083        0        
C1        C        0.5        0.018519        0.884083        0        
C2        C        0.541667        0.074075        0.884083        0        
C3        C        0.5        0.092592        0.884083        0        
C4        C        0.541667        0.037037        0.884083        0        
C1        C        0.5        0.12963        0.884083        0        
C2        C        0.541667        0.185185        0.884083        0        
C3        C        0.5        0.203703        0.884083        0        
C4        C        0.541667        0.148148        0.884083        0        
C1        C        0.5        0.24074099999999998        0.884083        0        
C2        C        0.541667        0.296297        0.884083        0        
C3        C        0.5        0.314815        0.884083        0        
C4        C        0.541667        0.259259        0.884083        0        
C1        C        0.5        0.351852        0.884083        0        
C2        C        0.541667        0.407408        0.884083        0        
C3        C        0.5        0.42592500000000005        0.884083        0        
C4        C        0.541667        0.37037        0.884083        0        
C1        C        0.5        0.46296300000000007        0.884083        0        
C2        C        0.541667        0.518519        0.884083        0        
C3        C        0.5        0.537037        0.884083        0        
C4        C        0.541667        0.481481        0.884083        0        
C1        C        0.5        0.574075        0.884083        0        
C2        C        0.541667        0.62963        0.884083        0        
C3        C        0.5        0.648148        0.884083        0        
C4        C        0.541667        0.592592        0.884083        0        
C1        C        0.583333        0.018519        0.884083        0        
C2        C        0.625        0.074075        0.884083        0        
C3        C        0.583333        0.092592        0.884083        0        
C4        C        0.625        0.037037        0.884083        0        
C1        C        0.583333        0.12963        0.884083        0        
C2        C        0.625        0.185185        0.884083        0        
C3        C        0.583333        0.203703        0.884083        0        
C4        C        0.625        0.148148        0.884083        0        
C1        C        0.583333        0.24074099999999998        0.884083        0        
C2        C        0.625        0.296297        0.884083        0        
C3        C        0.583333        0.314815        0.884083        0        
C4        C        0.625        0.259259        0.884083        0        
C1        C        0.583333        0.351852        0.884083        0        
C2        C        0.625        0.407408        0.884083        0        
C3        C        0.583333        0.42592500000000005        0.884083        0        
C4        C        0.625        0.37037        0.884083        0        
C1        C        0.583333        0.46296300000000007        0.884083        0        
C2        C        0.625        0.518519        0.884083        0        
C3        C        0.583333        0.537037        0.884083        0        
C4        C        0.625        0.481481        0.884083        0        
C1        C        0.583333        0.574075        0.884083        0        
C2        C        0.625        0.62963        0.884083        0        
C3        C        0.583333        0.648148        0.884083        0        
C4        C        0.625        0.592592        0.884083        0        
C1        C        0.666667        0.018519        0.884083        0        
C2        C        0.708333        0.074075        0.884083        0        
C3        C        0.666667        0.092592        0.884083        0        
C4        C        0.708333        0.037037        0.884083        0        
C1        C        0.666667        0.12963        0.884083        0        
C2        C        0.708333        0.185185        0.884083        0        
C3        C        0.666667        0.203703        0.884083        0        
C4        C        0.708333        0.148148        0.884083        0        
C1        C        0.666667        0.24074099999999998        0.884083        0        
C2        C        0.708333        0.296297        0.884083        0        
C3        C        0.666667        0.314815        0.884083        0        
C4        C        0.708333        0.259259        0.884083        0        
C1        C        0.666667        0.351852        0.884083        0        
C2        C        0.708333        0.407408        0.884083        0        
C3        C        0.666667        0.42592500000000005        0.884083        0        
C4        C        0.708333        0.37037        0.884083        0        
C1        C        0.666667        0.46296300000000007        0.884083        0        
C2        C        0.708333        0.518519        0.884083        0        
C3        C        0.666667        0.537037        0.884083        0        
C4        C        0.708333        0.481481        0.884083        0        
C1        C        0.666667        0.574075        0.884083        0        
C2        C        0.708333        0.62963        0.884083        0        
C3        C        0.666667        0.648148        0.884083        0        
C4        C        0.708333        0.592592        0.884083        0        
C1        C        0.75        0.018519        0.884083        0        
C2        C        0.7916670000000001        0.074075        0.884083        0        
C3        C        0.75        0.092592        0.884083        0        
C4        C        0.7916670000000001        0.037037        0.884083        0        
C1        C        0.75        0.12963        0.884083        0        
C2        C        0.7916670000000001        0.185185        0.884083        0        
C3        C        0.75        0.203703        0.884083        0        
C4        C        0.7916670000000001        0.148148        0.884083        0        
C1        C        0.75        0.24074099999999998        0.884083        0        
C2        C        0.7916670000000001        0.296297        0.884083        0        
C3        C        0.75        0.314815        0.884083        0        
C4        C        0.7916670000000001        0.259259        0.884083        0        
C1        C        0.75        0.351852        0.884083        0        
C2        C        0.7916670000000001        0.407408        0.884083        0        
C3        C        0.75        0.42592500000000005        0.884083        0        
C4        C        0.7916670000000001        0.37037        0.884083        0        
C1        C        0.75        0.46296300000000007        0.884083        0        
C2        C        0.7916670000000001        0.518519        0.884083        0        
C3        C        0.75        0.537037        0.884083        0        
C4        C        0.7916670000000001        0.481481        0.884083        0        
C1        C        0.75        0.574075        0.884083        0        
C2        C        0.7916670000000001        0.62963        0.884083        0        
C3        C        0.75        0.648148        0.884083        0        
C4        C        0.7916670000000001        0.592592        0.884083        0        
C1        C        0.833333        0.018519        0.884083        0        
C2        C        0.875        0.074075        0.884083        0        
C3        C        0.833333        0.092592        0.884083        0        
C4        C        0.875        0.037037        0.884083        0        
C1        C        0.833333        0.12963        0.884083        0        
C2        C        0.875        0.185185        0.884083        0        
C3        C        0.833333        0.203703        0.884083        0        
C4        C        0.875        0.148148        0.884083        0        
C1        C        0.833333        0.24074099999999998        0.884083        0        
C2        C        0.875        0.296297        0.884083        0        
C3        C        0.833333        0.314815        0.884083        0        
C4        C        0.875        0.259259        0.884083        0        
C1        C        0.833333        0.351852        0.884083        0        
C2        C        0.875        0.407408        0.884083        0        
C3        C        0.833333        0.42592500000000005        0.884083        0        
C4        C        0.875        0.37037        0.884083        0        
C1        C        0.833333        0.46296300000000007        0.884083        0        
C2        C        0.875        0.518519        0.884083        0        
C3        C        0.833333        0.537037        0.884083        0        
C4        C        0.875        0.481481        0.884083        0        
C1        C        0.833333        0.574075        0.884083        0        
C2        C        0.875        0.62963        0.884083        0        
C3        C        0.833333        0.648148        0.884083        0        
C4        C        0.875        0.592592        0.884083        0        
C1        C        0.916667        0.018519        0.884083        0        
C2        C        0.958333        0.074075        0.884083        0        
C3        C        0.916667        0.092592        0.884083        0        
C4        C        0.958333        0.037037        0.884083        0        
C1        C        0.916667        0.12963        0.884083        0        
C2        C        0.958333        0.185185        0.884083        0        
C3        C        0.916667        0.203703        0.884083        0        
C4        C        0.958333        0.148148        0.884083        0        
C1        C        0.916667        0.24074099999999998        0.884083        0        
C2        C        0.958333        0.296297        0.884083        0        
C3        C        0.916667        0.314815        0.884083        0        
C4        C        0.958333        0.259259        0.884083        0        
C1        C        0.916667        0.351852        0.884083        0        
C2        C        0.958333        0.407408        0.884083        0        
C3        C        0.916667        0.42592500000000005        0.884083        0        
C4        C        0.958333        0.37037        0.884083        0        
C1        C        0.916667        0.46296300000000007        0.884083        0        
C2        C        0.958333        0.518519        0.884083        0        
C3        C        0.916667        0.537037        0.884083        0        
C4        C        0.958333        0.481481        0.884083        0        
C1        C        0.916667        0.574075        0.884083        0        
C2        C        0.958333        0.62963        0.884083        0        
C3        C        0.916667        0.648148        0.884083        0        
C4        C        0.958333        0.592592        0.884083        0        
C1        C        0.0        0.685186        0.884083        0        
C1        C        0.083333        0.685186        0.884083        0        
C1        C        0.166667        0.685186        0.884083        0        
C1        C        0.25        0.685186        0.884083        0        
C1        C        0.333333        0.685186        0.884083        0        
C1        C        0.416667        0.685186        0.884083        0        
C1        C        0.5        0.685186        0.884083        0        
C1        C        0.583333        0.685186        0.884083        0        
C1        C        0.666667        0.685186        0.884083        0        
C1        C        0.75        0.685186        0.884083        0        
C1        C        0.833333        0.685186        0.884083        0        
C1        C        0.916667        0.685186        0.884083        0        
C2        C        0.041667        0.740741        0.884083        0        
C2        C        0.125        0.740741        0.884083        0        
C2        C        0.208333        0.740741        0.884083        0        
C2        C        0.291667        0.740741        0.884083        0        
C2        C        0.375        0.740741        0.884083        0        
C2        C        0.458333        0.740741        0.884083        0        
C2        C        0.541667        0.740741        0.884083        0        
C2        C        0.625        0.740741        0.884083        0        
C2        C        0.708333        0.740741        0.884083        0        
C2        C        0.7916670000000001        0.740741        0.884083        0        
C2        C        0.875        0.740741        0.884083        0        
C2        C        0.958333        0.740741        0.884083        0        
C3        C        0.0        0.759259        0.884083        0        
C3        C        0.083333        0.759259        0.884083        0        
C3        C        0.166667        0.759259        0.884083        0        
C3        C        0.25        0.759259        0.884083        0        
C3        C        0.333333        0.759259        0.884083        0        
C3        C        0.416667        0.759259        0.884083        0        
C3        C        0.5        0.759259        0.884083        0        
C3        C        0.583333        0.759259        0.884083        0        
C3        C        0.666667        0.759259        0.884083        0        
C3        C        0.75        0.759259        0.884083        0        
C3        C        0.833333        0.759259        0.884083        0        
C3        C        0.916667        0.759259        0.884083        0        
C4        C        0.041667        0.703703        0.884083        0        
C4        C        0.125        0.703703        0.884083        0        
C4        C        0.208333        0.703703        0.884083        0        
C4        C        0.291667        0.703703        0.884083        0        
C4        C        0.375        0.703703        0.884083        0        
C4        C        0.458333        0.703703        0.884083        0        
C4        C        0.541667        0.703703        0.884083        0        
C4        C        0.625        0.703703        0.884083        0        
C4        C        0.708333        0.703703        0.884083        0        
C4        C        0.7916670000000001        0.703703        0.884083        0        
C4        C        0.875        0.703703        0.884083        0        
C4        C        0.958333        0.703703        0.884083        0        
C1        C        0.0        0.796297        0.884083        0        
C1        C        0.083333        0.796297        0.884083        0        
C1        C        0.166667        0.796297        0.884083        0        
C1        C        0.25        0.796297        0.884083        0        
C1        C        0.333333        0.796297        0.884083        0        
C1        C        0.416667        0.796297        0.884083        0        
C1        C        0.5        0.796297        0.884083        0        
C1        C        0.583333        0.796297        0.884083        0        
C1        C        0.666667        0.796297        0.884083        0        
C1        C        0.75        0.796297        0.884083        0        
C1        C        0.833333        0.796297        0.884083        0        
C1        C        0.916667        0.796297        0.884083        0        
C2        C        0.041667        0.851852        0.884083        0        
C2        C        0.125        0.851852        0.884083        0        
C2        C        0.208333        0.851852        0.884083        0        
C2        C        0.291667        0.851852        0.884083        0        
C2        C        0.375        0.851852        0.884083        0        
C2        C        0.458333        0.851852        0.884083        0        
C2        C        0.541667        0.851852        0.884083        0        
C2        C        0.625        0.851852        0.884083        0        
C2        C        0.708333        0.851852        0.884083        0        
C2        C        0.7916670000000001        0.851852        0.884083        0        
C2        C        0.875        0.851852        0.884083        0        
C2        C        0.958333        0.851852        0.884083        0        
C3        C        0.0        0.87037        0.884083        0        
C3        C        0.083333        0.87037        0.884083        0        
C3        C        0.166667        0.87037        0.884083        0        
C3        C        0.25        0.87037        0.884083        0        
C3        C        0.333333        0.87037        0.884083        0        
C3        C        0.416667        0.87037        0.884083        0        
C3        C        0.5        0.87037        0.884083        0        
C3        C        0.583333        0.87037        0.884083        0        
C3        C        0.666667        0.87037        0.884083        0        
C3        C        0.75        0.87037        0.884083        0        
C3        C        0.833333        0.87037        0.884083        0        
C3        C        0.916667        0.87037        0.884083        0        
C4        C        0.041667        0.814814        0.884083        0        
C4        C        0.125        0.814814        0.884083        0        
C4        C        0.208333        0.814814        0.884083        0        
C4        C        0.291667        0.814814        0.884083        0        
C4        C        0.375        0.814814        0.884083        0        
C4        C        0.458333        0.814814        0.884083        0        
C4        C        0.541667        0.814814        0.884083        0        
C4        C        0.625        0.814814        0.884083        0        
C4        C        0.708333        0.814814        0.884083        0        
C4        C        0.7916670000000001        0.814814        0.884083        0        
C4        C        0.875        0.814814        0.884083        0        
C4        C        0.958333        0.814814        0.884083        0        
C1        C        0.0        0.907408        0.884083        0        
C1        C        0.083333        0.907408        0.884083        0        
C1        C        0.166667        0.907408        0.884083        0        
C1        C        0.25        0.907408        0.884083        0        
C1        C        0.333333        0.907408        0.884083        0        
C1        C        0.416667        0.907408        0.884083        0        
C1        C        0.5        0.907408        0.884083        0        
C1        C        0.583333        0.907408        0.884083        0        
C1        C        0.666667        0.907408        0.884083        0        
C1        C        0.75        0.907408        0.884083        0        
C1        C        0.833333        0.907408        0.884083        0        
C1        C        0.916667        0.907408        0.884083        0        
C2        C        0.041667        0.962963        0.884083        0        
C2        C        0.125        0.962963        0.884083        0        
C2        C        0.208333        0.962963        0.884083        0        
C2        C        0.291667        0.962963        0.884083        0        
C2        C        0.375        0.962963        0.884083        0        
C2        C        0.458333        0.962963        0.884083        0        
C2        C        0.541667        0.962963        0.884083        0        
C2        C        0.625        0.962963        0.884083        0        
C2        C        0.708333        0.962963        0.884083        0        
C2        C        0.7916670000000001        0.962963        0.884083        0        
C2        C        0.875        0.962963        0.884083        0        
C2        C        0.958333        0.962963        0.884083        0        
C3        C        0.0        0.9814809999999999        0.884083        0        
C3        C        0.083333        0.9814809999999999        0.884083        0        
C3        C        0.166667        0.9814809999999999        0.884083        0        
C3        C        0.25        0.9814809999999999        0.884083        0        
C3        C        0.333333        0.9814809999999999        0.884083        0        
C3        C        0.416667        0.9814809999999999        0.884083        0        
C3        C        0.5        0.9814809999999999        0.884083        0        
C3        C        0.583333        0.9814809999999999        0.884083        0        
C3        C        0.666667        0.9814809999999999        0.884083        0        
C3        C        0.75        0.9814809999999999        0.884083        0        
C3        C        0.833333        0.9814809999999999        0.884083        0        
C3        C        0.916667        0.9814809999999999        0.884083        0        
C4        C        0.041667        0.925925        0.884083        0        
C4        C        0.125        0.925925        0.884083        0        
C4        C        0.208333        0.925925        0.884083        0        
C4        C        0.291667        0.925925        0.884083        0        
C4        C        0.375        0.925925        0.884083        0        
C4        C        0.458333        0.925925        0.884083        0        
C4        C        0.541667        0.925925        0.884083        0        
C4        C        0.625        0.925925        0.884083        0        
C4        C        0.708333        0.925925        0.884083        0        
C4        C        0.7916670000000001        0.925925        0.884083        0        
C4        C        0.875        0.925925        0.884083        0        
C4        C        0.958333        0.925925        0.884083        0        
C1        C        0.0        0.018519        1.0        0        
C2        C        0.041667        0.074075        1.0        0        
C3        C        0.0        0.092592        1.0        0        
C4        C        0.041667        0.037037        1.0        0        
C1        C        0.0        0.12963        1.0        0        
C2        C        0.041667        0.185185        1.0        0        
C3        C        0.0        0.203703        1.0        0        
C4        C        0.041667        0.148148        1.0        0        
C1        C        0.0        0.24074099999999998        1.0        0        
C2        C        0.041667        0.296297        1.0        0        
C3        C        0.0        0.314815        1.0        0        
C4        C        0.041667        0.259259        1.0        0        
C1        C        0.0        0.351852        1.0        0        
C2        C        0.041667        0.407408        1.0        0        
C3        C        0.0        0.42592500000000005        1.0        0        
C4        C        0.041667        0.37037        1.0        0        
C1        C        0.0        0.46296300000000007        1.0        0        
C2        C        0.041667        0.518519        1.0        0        
C3        C        0.0        0.537037        1.0        0        
C4        C        0.041667        0.481481        1.0        0        
C1        C        0.0        0.574075        1.0        0        
C2        C        0.041667        0.62963        1.0        0        
C3        C        0.0        0.648148        1.0        0        
C4        C        0.041667        0.592592        1.0        0        
C1        C        0.083333        0.018519        1.0        0        
C2        C        0.125        0.074075        1.0        0        
C3        C        0.083333        0.092592        1.0        0        
C4        C        0.125        0.037037        1.0        0        
C1        C        0.083333        0.12963        1.0        0        
C2        C        0.125        0.185185        1.0        0        
C3        C        0.083333        0.203703        1.0        0        
C4        C        0.125        0.148148        1.0        0        
C1        C        0.083333        0.24074099999999998        1.0        0        
C2        C        0.125        0.296297        1.0        0        
C3        C        0.083333        0.314815        1.0        0        
C4        C        0.125        0.259259        1.0        0        
C1        C        0.083333        0.351852        1.0        0        
C2        C        0.125        0.407408        1.0        0        
C3        C        0.083333        0.42592500000000005        1.0        0        
C4        C        0.125        0.37037        1.0        0        
C1        C        0.083333        0.46296300000000007        1.0        0        
C2        C        0.125        0.518519        1.0        0        
C3        C        0.083333        0.537037        1.0        0        
C4        C        0.125        0.481481        1.0        0        
C1        C        0.083333        0.574075        1.0        0        
C2        C        0.125        0.62963        1.0        0        
C3        C        0.083333        0.648148        1.0        0        
C4        C        0.125        0.592592        1.0        0        
C1        C        0.166667        0.018519        1.0        0        
C2        C        0.208333        0.074075        1.0        0        
C3        C        0.166667        0.092592        1.0        0        
C4        C        0.208333        0.037037        1.0        0        
C1        C        0.166667        0.12963        1.0        0        
C2        C        0.208333        0.185185        1.0        0        
C3        C        0.166667        0.203703        1.0        0        
C4        C        0.208333        0.148148        1.0        0        
C1        C        0.166667        0.24074099999999998        1.0        0        
C2        C        0.208333        0.296297        1.0        0        
C3        C        0.166667        0.314815        1.0        0        
C4        C        0.208333        0.259259        1.0        0        
C1        C        0.166667        0.351852        1.0        0        
C2        C        0.208333        0.407408        1.0        0        
C3        C        0.166667        0.42592500000000005        1.0        0        
C4        C        0.208333        0.37037        1.0        0        
C1        C        0.166667        0.46296300000000007        1.0        0        
C2        C        0.208333        0.518519        1.0        0        
C3        C        0.166667        0.537037        1.0        0        
C4        C        0.208333        0.481481        1.0        0        
C1        C        0.166667        0.574075        1.0        0        
C2        C        0.208333        0.62963        1.0        0        
C3        C        0.166667        0.648148        1.0        0        
C4        C        0.208333        0.592592        1.0        0        
C1        C        0.25        0.018519        1.0        0        
C2        C        0.291667        0.074075        1.0        0        
C3        C        0.25        0.092592        1.0        0        
C4        C        0.291667        0.037037        1.0        0        
C1        C        0.25        0.12963        1.0        0        
C2        C        0.291667        0.185185        1.0        0        
C3        C        0.25        0.203703        1.0        0        
C4        C        0.291667        0.148148        1.0        0        
C1        C        0.25        0.24074099999999998        1.0        0        
C2        C        0.291667        0.296297        1.0        0        
C3        C        0.25        0.314815        1.0        0        
C4        C        0.291667        0.259259        1.0        0        
C1        C        0.25        0.351852        1.0        0        
C2        C        0.291667        0.407408        1.0        0        
C3        C        0.25        0.42592500000000005        1.0        0        
C4        C        0.291667        0.37037        1.0        0        
C1        C        0.25        0.46296300000000007        1.0        0        
C2        C        0.291667        0.518519        1.0        0        
C3        C        0.25        0.537037        1.0        0        
C4        C        0.291667        0.481481        1.0        0        
C1        C        0.25        0.574075        1.0        0        
C2        C        0.291667        0.62963        1.0        0        
C3        C        0.25        0.648148        1.0        0        
C4        C        0.291667        0.592592        1.0        0        
C1        C        0.333333        0.018519        1.0        0        
C2        C        0.375        0.074075        1.0        0        
C3        C        0.333333        0.092592        1.0        0        
C4        C        0.375        0.037037        1.0        0        
C1        C        0.333333        0.12963        1.0        0        
C2        C        0.375        0.185185        1.0        0        
C3        C        0.333333        0.203703        1.0        0        
C4        C        0.375        0.148148        1.0        0        
C1        C        0.333333        0.24074099999999998        1.0        0        
C2        C        0.375        0.296297        1.0        0        
C3        C        0.333333        0.314815        1.0        0        
C4        C        0.375        0.259259        1.0        0        
C1        C        0.333333        0.351852        1.0        0        
C2        C        0.375        0.407408        1.0        0        
C3        C        0.333333        0.42592500000000005        1.0        0        
C4        C        0.375        0.37037        1.0        0        
C1        C        0.333333        0.46296300000000007        1.0        0        
C2        C        0.375        0.518519        1.0        0        
C3        C        0.333333        0.537037        1.0        0        
C4        C        0.375        0.481481        1.0        0        
C1        C        0.333333        0.574075        1.0        0        
C2        C        0.375        0.62963        1.0        0        
C3        C        0.333333        0.648148        1.0        0        
C4        C        0.375        0.592592        1.0        0        
C1        C        0.416667        0.018519        1.0        0        
C2        C        0.458333        0.074075        1.0        0        
C3        C        0.416667        0.092592        1.0        0        
C4        C        0.458333        0.037037        1.0        0        
C1        C        0.416667        0.12963        1.0        0        
C2        C        0.458333        0.185185        1.0        0        
C3        C        0.416667        0.203703        1.0        0        
C4        C        0.458333        0.148148        1.0        0        
C1        C        0.416667        0.24074099999999998        1.0        0        
C2        C        0.458333        0.296297        1.0        0        
C3        C        0.416667        0.314815        1.0        0        
C4        C        0.458333        0.259259        1.0        0        
C1        C        0.416667        0.351852        1.0        0        
C2        C        0.458333        0.407408        1.0        0        
C3        C        0.416667        0.42592500000000005        1.0        0        
C4        C        0.458333        0.37037        1.0        0        
C1        C        0.416667        0.46296300000000007        1.0        0        
C2        C        0.458333        0.518519        1.0        0        
C3        C        0.416667        0.537037        1.0        0        
C4        C        0.458333        0.481481        1.0        0        
C1        C        0.416667        0.574075        1.0        0        
C2        C        0.458333        0.62963        1.0        0        
C3        C        0.416667        0.648148        1.0        0        
C4        C        0.458333        0.592592        1.0        0        
C1        C        0.5        0.018519        1.0        0        
C2        C        0.541667        0.074075        1.0        0        
C3        C        0.5        0.092592        1.0        0        
C4        C        0.541667        0.037037        1.0        0        
C1        C        0.5        0.12963        1.0        0        
C2        C        0.541667        0.185185        1.0        0        
C3        C        0.5        0.203703        1.0        0        
C4        C        0.541667        0.148148        1.0        0        
C1        C        0.5        0.24074099999999998        1.0        0        
C2        C        0.541667        0.296297        1.0        0        
C3        C        0.5        0.314815        1.0        0        
C4        C        0.541667        0.259259        1.0        0        
C1        C        0.5        0.351852        1.0        0        
C2        C        0.541667        0.407408        1.0        0        
C3        C        0.5        0.42592500000000005        1.0        0        
C4        C        0.541667        0.37037        1.0        0        
C1        C        0.5        0.46296300000000007        1.0        0        
C2        C        0.541667        0.518519        1.0        0        
C3        C        0.5        0.537037        1.0        0        
C4        C        0.541667        0.481481        1.0        0        
C1        C        0.5        0.574075        1.0        0        
C2        C        0.541667        0.62963        1.0        0        
C3        C        0.5        0.648148        1.0        0        
C4        C        0.541667        0.592592        1.0        0        
C1        C        0.583333        0.018519        1.0        0        
C2        C        0.625        0.074075        1.0        0        
C3        C        0.583333        0.092592        1.0        0        
C4        C        0.625        0.037037        1.0        0        
C1        C        0.583333        0.12963        1.0        0        
C2        C        0.625        0.185185        1.0        0        
C3        C        0.583333        0.203703        1.0        0        
C4        C        0.625        0.148148        1.0        0        
C1        C        0.583333        0.24074099999999998        1.0        0        
C2        C        0.625        0.296297        1.0        0        
C3        C        0.583333        0.314815        1.0        0        
C4        C        0.625        0.259259        1.0        0        
C1        C        0.583333        0.351852        1.0        0        
C2        C        0.625        0.407408        1.0        0        
C3        C        0.583333        0.42592500000000005        1.0        0        
C4        C        0.625        0.37037        1.0        0        
C1        C        0.583333        0.46296300000000007        1.0        0        
C2        C        0.625        0.518519        1.0        0        
C3        C        0.583333        0.537037        1.0        0        
C4        C        0.625        0.481481        1.0        0        
C1        C        0.583333        0.574075        1.0        0        
C2        C        0.625        0.62963        1.0        0        
C3        C        0.583333        0.648148        1.0        0        
C4        C        0.625        0.592592        1.0        0        
C1        C        0.666667        0.018519        1.0        0        
C2        C        0.708333        0.074075        1.0        0        
C3        C        0.666667        0.092592        1.0        0        
C4        C        0.708333        0.037037        1.0        0        
C1        C        0.666667        0.12963        1.0        0        
C2        C        0.708333        0.185185        1.0        0        
C3        C        0.666667        0.203703        1.0        0        
C4        C        0.708333        0.148148        1.0        0        
C1        C        0.666667        0.24074099999999998        1.0        0        
C2        C        0.708333        0.296297        1.0        0        
C3        C        0.666667        0.314815        1.0        0        
C4        C        0.708333        0.259259        1.0        0        
C1        C        0.666667        0.351852        1.0        0        
C2        C        0.708333        0.407408        1.0        0        
C3        C        0.666667        0.42592500000000005        1.0        0        
C4        C        0.708333        0.37037        1.0        0        
C1        C        0.666667        0.46296300000000007        1.0        0        
C2        C        0.708333        0.518519        1.0        0        
C3        C        0.666667        0.537037        1.0        0        
C4        C        0.708333        0.481481        1.0        0        
C1        C        0.666667        0.574075        1.0        0        
C2        C        0.708333        0.62963        1.0        0        
C3        C        0.666667        0.648148        1.0        0        
C4        C        0.708333        0.592592        1.0        0        
C1        C        0.75        0.018519        1.0        0        
C2        C        0.7916670000000001        0.074075        1.0        0        
C3        C        0.75        0.092592        1.0        0        
C4        C        0.7916670000000001        0.037037        1.0        0        
C1        C        0.75        0.12963        1.0        0        
C2        C        0.7916670000000001        0.185185        1.0        0        
C3        C        0.75        0.203703        1.0        0        
C4        C        0.7916670000000001        0.148148        1.0        0        
C1        C        0.75        0.24074099999999998        1.0        0        
C2        C        0.7916670000000001        0.296297        1.0        0        
C3        C        0.75        0.314815        1.0        0        
C4        C        0.7916670000000001        0.259259        1.0        0        
C1        C        0.75        0.351852        1.0        0        
C2        C        0.7916670000000001        0.407408        1.0        0        
C3        C        0.75        0.42592500000000005        1.0        0        
C4        C        0.7916670000000001        0.37037        1.0        0        
C1        C        0.75        0.46296300000000007        1.0        0        
C2        C        0.7916670000000001        0.518519        1.0        0        
C3        C        0.75        0.537037        1.0        0        
C4        C        0.7916670000000001        0.481481        1.0        0        
C1        C        0.75        0.574075        1.0        0        
C2        C        0.7916670000000001        0.62963        1.0        0        
C3        C        0.75        0.648148        1.0        0        
C4        C        0.7916670000000001        0.592592        1.0        0        
C1        C        0.833333        0.018519        1.0        0        
C2        C        0.875        0.074075        1.0        0        
C3        C        0.833333        0.092592        1.0        0        
C4        C        0.875        0.037037        1.0        0        
C1        C        0.833333        0.12963        1.0        0        
C2        C        0.875        0.185185        1.0        0        
C3        C        0.833333        0.203703        1.0        0        
C4        C        0.875        0.148148        1.0        0        
C1        C        0.833333        0.24074099999999998        1.0        0        
C2        C        0.875        0.296297        1.0        0        
C3        C        0.833333        0.314815        1.0        0        
C4        C        0.875        0.259259        1.0        0        
C1        C        0.833333        0.351852        1.0        0        
C2        C        0.875        0.407408        1.0        0        
C3        C        0.833333        0.42592500000000005        1.0        0        
C4        C        0.875        0.37037        1.0        0        
C1        C        0.833333        0.46296300000000007        1.0        0        
C2        C        0.875        0.518519        1.0        0        
C3        C        0.833333        0.537037        1.0        0        
C4        C        0.875        0.481481        1.0        0        
C1        C        0.833333        0.574075        1.0        0        
C2        C        0.875        0.62963        1.0        0        
C3        C        0.833333        0.648148        1.0        0        
C4        C        0.875        0.592592        1.0        0        
C1        C        0.916667        0.018519        1.0        0        
C2        C        0.958333        0.074075        1.0        0        
C3        C        0.916667        0.092592        1.0        0        
C4        C        0.958333        0.037037        1.0        0        
C1        C        0.916667        0.12963        1.0        0        
C2        C        0.958333        0.185185        1.0        0        
C3        C        0.916667        0.203703        1.0        0        
C4        C        0.958333        0.148148        1.0        0        
C1        C        0.916667        0.24074099999999998        1.0        0        
C2        C        0.958333        0.296297        1.0        0        
C3        C        0.916667        0.314815        1.0        0        
C4        C        0.958333        0.259259        1.0        0        
C1        C        0.916667        0.351852        1.0        0        
C2        C        0.958333        0.407408        1.0        0        
C3        C        0.916667        0.42592500000000005        1.0        0        
C4        C        0.958333        0.37037        1.0        0        
C1        C        0.916667        0.46296300000000007        1.0        0        
C2        C        0.958333        0.518519        1.0        0        
C3        C        0.916667        0.537037        1.0        0        
C4        C        0.958333        0.481481        1.0        0        
C1        C        0.916667        0.574075        1.0        0        
C2        C        0.958333        0.62963        1.0        0        
C3        C        0.916667        0.648148        1.0        0        
C4        C        0.958333        0.592592        1.0        0        
C1        C        0.0        0.685186        1.0        0        
C1        C        0.083333        0.685186        1.0        0        
C1        C        0.166667        0.685186        1.0        0        
C1        C        0.25        0.685186        1.0        0        
C1        C        0.333333        0.685186        1.0        0        
C1        C        0.416667        0.685186        1.0        0        
C1        C        0.5        0.685186        1.0        0        
C1        C        0.583333        0.685186        1.0        0        
C1        C        0.666667        0.685186        1.0        0        
C1        C        0.75        0.685186        1.0        0        
C1        C        0.833333        0.685186        1.0        0        
C1        C        0.916667        0.685186        1.0        0        
C2        C        0.041667        0.740741        1.0        0        
C2        C        0.125        0.740741        1.0        0        
C2        C        0.208333        0.740741        1.0        0        
C2        C        0.291667        0.740741        1.0        0        
C2        C        0.375        0.740741        1.0        0        
C2        C        0.458333        0.740741        1.0        0        
C2        C        0.541667        0.740741        1.0        0        
C2        C        0.625        0.740741        1.0        0        
C2        C        0.708333        0.740741        1.0        0        
C2        C        0.7916670000000001        0.740741        1.0        0        
C2        C        0.875        0.740741        1.0        0        
C2        C        0.958333        0.740741        1.0        0        
C3        C        0.0        0.759259        1.0        0        
C3        C        0.083333        0.759259        1.0        0        
C3        C        0.166667        0.759259        1.0        0        
C3        C        0.25        0.759259        1.0        0        
C3        C        0.333333        0.759259        1.0        0        
C3        C        0.416667        0.759259        1.0        0        
C3        C        0.5        0.759259        1.0        0        
C3        C        0.583333        0.759259        1.0        0        
C3        C        0.666667        0.759259        1.0        0        
C3        C        0.75        0.759259        1.0        0        
C3        C        0.833333        0.759259        1.0        0        
C3        C        0.916667        0.759259        1.0        0        
C4        C        0.041667        0.703703        1.0        0        
C4        C        0.125        0.703703        1.0        0        
C4        C        0.208333        0.703703        1.0        0        
C4        C        0.291667        0.703703        1.0        0        
C4        C        0.375        0.703703        1.0        0        
C4        C        0.458333        0.703703        1.0        0        
C4        C        0.541667        0.703703        1.0        0        
C4        C        0.625        0.703703        1.0        0        
C4        C        0.708333        0.703703        1.0        0        
C4        C        0.7916670000000001        0.703703        1.0        0        
C4        C        0.875        0.703703        1.0        0        
C4        C        0.958333        0.703703        1.0        0        
C1        C        0.0        0.796297        1.0        0        
C1        C        0.083333        0.796297        1.0        0        
C1        C        0.166667        0.796297        1.0        0        
C1        C        0.25        0.796297        1.0        0        
C1        C        0.333333        0.796297        1.0        0        
C1        C        0.416667        0.796297        1.0        0        
C1        C        0.5        0.796297        1.0        0        
C1        C        0.583333        0.796297        1.0        0        
C1        C        0.666667        0.796297        1.0        0        
C1        C        0.75        0.796297        1.0        0        
C1        C        0.833333        0.796297        1.0        0        
C1        C        0.916667        0.796297        1.0        0        
C2        C        0.041667        0.851852        1.0        0        
C2        C        0.125        0.851852        1.0        0        
C2        C        0.208333        0.851852        1.0        0        
C2        C        0.291667        0.851852        1.0        0        
C2        C        0.375        0.851852        1.0        0        
C2        C        0.458333        0.851852        1.0        0        
C2        C        0.541667        0.851852        1.0        0        
C2        C        0.625        0.851852        1.0        0        
C2        C        0.708333        0.851852        1.0        0        
C2        C        0.7916670000000001        0.851852        1.0        0        
C2        C        0.875        0.851852        1.0        0        
C2        C        0.958333        0.851852        1.0        0        
C3        C        0.0        0.87037        1.0        0        
C3        C        0.083333        0.87037        1.0        0        
C3        C        0.166667        0.87037        1.0        0        
C3        C        0.25        0.87037        1.0        0        
C3        C        0.333333        0.87037        1.0        0        
C3        C        0.416667        0.87037        1.0        0        
C3        C        0.5        0.87037        1.0        0        
C3        C        0.583333        0.87037        1.0        0        
C3        C        0.666667        0.87037        1.0        0        
C3        C        0.75        0.87037        1.0        0        
C3        C        0.833333        0.87037        1.0        0        
C3        C        0.916667        0.87037        1.0        0        
C4        C        0.041667        0.814814        1.0        0        
C4        C        0.125        0.814814        1.0        0        
C4        C        0.208333        0.814814        1.0        0        
C4        C        0.291667        0.814814        1.0        0        
C4        C        0.375        0.814814        1.0        0        
C4        C        0.458333        0.814814        1.0        0        
C4        C        0.541667        0.814814        1.0        0        
C4        C        0.625        0.814814        1.0        0        
C4        C        0.708333        0.814814        1.0        0        
C4        C        0.7916670000000001        0.814814        1.0        0        
C4        C        0.875        0.814814        1.0        0        
C4        C        0.958333        0.814814        1.0        0        
C1        C        0.0        0.907408        1.0        0        
C1        C        0.083333        0.907408        1.0        0        
C1        C        0.166667        0.907408        1.0        0        
C1        C        0.25        0.907408        1.0        0        
C1        C        0.333333        0.907408        1.0        0        
C1        C        0.416667        0.907408        1.0        0        
C1        C        0.5        0.907408        1.0        0        
C1        C        0.583333        0.907408        1.0        0        
C1        C        0.666667        0.907408        1.0        0        
C1        C        0.75        0.907408        1.0        0        
C1        C        0.833333        0.907408        1.0        0        
C1        C        0.916667        0.907408        1.0        0        
C2        C        0.041667        0.962963        1.0        0        
C2        C        0.125        0.962963        1.0        0        
C2        C        0.208333        0.962963        1.0        0        
C2        C        0.291667        0.962963        1.0        0        
C2        C        0.375        0.962963        1.0        0        
C2        C        0.458333        0.962963        1.0        0        
C2        C        0.541667        0.962963        1.0        0        
C2        C        0.625        0.962963        1.0        0        
C2        C        0.708333        0.962963        1.0        0        
C2        C        0.7916670000000001        0.962963        1.0        0        
C2        C        0.875        0.962963        1.0        0        
C2        C        0.958333        0.962963        1.0        0        
C3        C        0.0        0.9814809999999999        1.0        0        
C3        C        0.083333        0.9814809999999999        1.0        0        
C3        C        0.166667        0.9814809999999999        1.0        0        
C3        C        0.25        0.9814809999999999        1.0        0        
C3        C        0.333333        0.9814809999999999        1.0        0        
C3        C        0.416667        0.9814809999999999        1.0        0        
C3        C        0.5        0.9814809999999999        1.0        0        
C3        C        0.583333        0.9814809999999999        1.0        0        
C3        C        0.666667        0.9814809999999999        1.0        0        
C3        C        0.75        0.9814809999999999        1.0        0        
C3        C        0.833333        0.9814809999999999        1.0        0        
C3        C        0.916667        0.9814809999999999        1.0        0        
C4        C        0.041667        0.925925        1.0        0        
C4        C        0.125        0.925925        1.0        0        
C4        C        0.208333        0.925925        1.0        0        
C4        C        0.291667        0.925925        1.0        0        
C4        C        0.375        0.925925        1.0        0        
C4        C        0.458333        0.925925        1.0        0        
C4        C        0.541667        0.925925        1.0        0        
C4        C        0.625        0.925925        1.0        0        
C4        C        0.708333        0.925925        1.0        0        
C4        C        0.7916670000000001        0.925925        1.0        0        
C4        C        0.875        0.925925        1.0        0        
C4        C        0.958333        0.925925        1.0        0        
O_OH        O        0.75        0.018519        0.28141868512110724        -0.64        
O_OH        O        0.75        0.12963        0.28141868512110724        -0.64        
O_OH        O        0.75        0.24074099999999998        0.28141868512110724        -0.64        
O_OH        O        0.75        0.351852        0.28141868512110724        -0.64        
O_OH        O        0.75        0.46296300000000007        0.28141868512110724        -0.64        
O_OH        O        0.75        0.574075        0.28141868512110724        -0.64        
O_OH        O        0.916667        0.018519        0.28141868512110724        -0.64        
O_OH        O        0.916667        0.12963        0.28141868512110724        -0.64        
O_OH        O        0.916667        0.24074099999999998        0.28141868512110724        -0.64        
O_OH        O        0.916667        0.351852        0.28141868512110724        -0.64        
O_OH        O        0.916667        0.46296300000000007        0.28141868512110724        -0.64        
O_OH        O        0.916667        0.574075        0.28141868512110724        -0.64        
O_OH        O        0.75        0.685186        0.28141868512110724        -0.64        
O_OH        O        0.916667        0.685186        0.28141868512110724        -0.64        
O_OH        O        0.75        0.796297        0.28141868512110724        -0.64        
O_OH        O        0.916667        0.796297        0.28141868512110724        -0.64        
O_OH        O        0.75        0.907408        0.28141868512110724        -0.64        
O_OH        O        0.916667        0.907408        0.28141868512110724        -0.64        
O_OH        O        0.75        0.018519        0.7185813148788928        -0.64        
O_OH        O        0.75        0.12963        0.7185813148788928        -0.64        
O_OH        O        0.75        0.24074099999999998        0.7185813148788928        -0.64        
O_OH        O        0.75        0.351852        0.7185813148788928        -0.64        
O_OH        O        0.75        0.46296300000000007        0.7185813148788928        -0.64        
O_OH        O        0.75        0.574075        0.7185813148788928        -0.64        
O_OH        O        0.916667        0.018519        0.7185813148788928        -0.64        
O_OH        O        0.916667        0.12963        0.7185813148788928        -0.64        
O_OH        O        0.916667        0.24074099999999998        0.7185813148788928        -0.64        
O_OH        O        0.916667        0.351852        0.7185813148788928        -0.64        
O_OH        O        0.916667        0.46296300000000007        0.7185813148788928        -0.64        
O_OH        O        0.916667        0.574075        0.7185813148788928        -0.64        
O_OH        O        0.75        0.685186        0.7185813148788928        -0.64        
O_OH        O        0.916667        0.685186        0.7185813148788928        -0.64        
O_OH        O        0.75        0.796297        0.7185813148788928        -0.64        
O_OH        O        0.916667        0.796297        0.7185813148788928        -0.64        
O_OH        O        0.75        0.907408        0.7185813148788928        -0.64        
O_OH        O        0.916667        0.907408        0.7185813148788928        -0.64        
H_OH        H        0.7312578705009146        0.03700746385686714        0.7069481314878893        0.44        
H_OH        H        0.7197890493015131        0.13262826523383248        0.7069481314878893        0.44        
H_OH        H        0.777885524849923        0.25017922289045613        0.7069481314878893        0.44        
H_OH        H        0.7462448798358869        0.37512655545393603        0.7069481314878893        0.44        
H_OH        H        0.7598120669078855        0.4851663529604466        0.7069481314878893        0.44        
H_OH        H        0.7210289502634513        0.5813200799873606        0.7069481314878893        0.44        
H_OH        H        0.9062022973239019        0.04054497986759378        0.7069481314878893        0.44        
H_OH        H        0.9150109027768909        0.15304876231449704        0.7069481314878893        0.44        
H_OH        H        0.8862229129493874        0.24151976863079083        0.7069481314878893        0.44        
H_OH        H        0.9439446596358574        0.36229032457644483        0.7069481314878893        0.44        
H_OH        H        0.9187577784217792        0.48636113864394553        0.7069481314878893        0.44        
H_OH        H        0.887833456144112        0.5816382835556692        0.7069481314878893        0.44        
H_OH        H        0.7544537667219995        0.7083874008017119        0.7069481314878893        0.44        
H_OH        H        0.886429303977773        0.6880199299258958        0.7069481314878893        0.44        
H_OH        H        0.7544375497667812        0.8195002428560364        0.7069481314878893        0.44        
H_OH        H        0.9083463277615904        0.8188584885152101        0.7069481314878893        0.44        
H_OH        H        0.7505129288489174        0.9308581254024284        0.7069481314878893        0.44        
H_OH        H        0.9363972394955564        0.9252766034928703        0.7069481314878893        0.44        
