data_graphite_ortho

_audit_creation_method RASPA-1.0
_audit_creation_date 2012-2-3
_audit_author_name 'David Dubbeldam'

_cell_length_a    39.36    
_cell_length_b    38.339999999999996    
_cell_length_c    13.7    
_cell_angle_alpha 90
_cell_angle_beta  90
_cell_angle_gamma 90
_cell_volume      20674.15      

_symmetry_cell_setting          triclinic
_symmetry_space_group_name_Hall 'P 1'
_symmetry_space_group_name_H-M  'P 1'
_symmetry_Int_Tables_number     1

_symmetry_equiv_pos_as_xyz 'x,y,z'

loop_
_atom_site_label
_atom_site_type_symbol
_atom_site_fract_x
_atom_site_fract_y
_atom_site_fract_z
_atom_site_charge
C_Base_OH        C        0.0        0.018519        0.16947        0.2        
C_Base_COOH        C        0.03125        0.074075        0.16947        0.08        
C_Base_COOH        C        0.0        0.092592        0.16947        0.08        
C_Base_COOH        C        0.03125        0.037037        0.16947        0.08        
C_Base_OH        C        0.0        0.12963        0.16947        0.2        
C_Base_COOH        C        0.03125        0.185185        0.16947        0.08        
C_Base_OH        C        0.0        0.203703        0.16947        0.2        
C_Base_COOH        C        0.03125        0.148148        0.16947        0.08        
C_Base_OH        C        0.0        0.24074099999999998        0.16947        0.2        
C_Base_COOH        C        0.03125        0.296297        0.16947        0.08        
C_Base_COOH        C        0.0        0.314815        0.16947        0.08        
C_Base_COOH        C        0.03125        0.259259        0.16947        0.08        
C_Base_COOH        C        0.0        0.351852        0.16947        0.08        
C_Base_OH        C        0.03125        0.407408        0.16947        0.2        
C_Base_OH        C        0.0        0.425925        0.16947        0.2        
C_Base_COOH        C        0.03125        0.37037        0.16947        0.08        
C_Base_OH        C        0.0        0.46296300000000007        0.16947        0.2        
C_Base_OH        C        0.03125        0.518519        0.16947        0.2        
C_Base_COOH        C        0.0        0.537037        0.16947        0.08        
C_Base_OH        C        0.03125        0.481481        0.16947        0.2        
C_Base_OH        C        0.0        0.574075        0.16947        0.2        
C_Base_OH        C        0.03125        0.62963        0.16947        0.2        
C_Base_OH        C        0.0        0.648148        0.16947        0.2        
C_Base_COOH        C        0.03125        0.592592        0.16947        0.08        
C_Base_OH        C        0.0625        0.018519        0.16947        0.2        
C_Base_COOH        C        0.09375        0.074075        0.16947        0.08        
C_Base_COOH        C        0.0625        0.092592        0.16947        0.08        
C_Base_COOH        C        0.09375        0.037037        0.16947        0.08        
C_Base_OH        C        0.0625        0.12963        0.16947        0.2        
C_Base_COOH        C        0.09375        0.185185        0.16947        0.08        
C_Base_OH        C        0.0625        0.203703        0.16947        0.2        
C_Base_COOH        C        0.09375        0.148148        0.16947        0.08        
C_Base_OH        C        0.0625        0.24074099999999998        0.16947        0.2        
C_Base_COOH        C        0.09375        0.296297        0.16947        0.08        
C_Base_COOH        C        0.0625        0.314815        0.16947        0.08        
C_Base_COOH        C        0.09375        0.259259        0.16947        0.08        
C_Base_COOH        C        0.0625        0.351852        0.16947        0.08        
C_Base_OH        C        0.09375        0.407408        0.16947        0.2        
C_Base_OH        C        0.0625        0.425925        0.16947        0.2        
C_Base_COOH        C        0.09375        0.37037        0.16947        0.08        
C_Base_OH        C        0.0625        0.46296300000000007        0.16947        0.2        
C_Base_OH        C        0.09375        0.518519        0.16947        0.2        
C_Base_COOH        C        0.0625        0.537037        0.16947        0.08        
C_Base_OH        C        0.09375        0.481481        0.16947        0.2        
C_Base_OH        C        0.0625        0.574075        0.16947        0.2        
C_Base_OH        C        0.09375        0.62963        0.16947        0.2        
C_Base_OH        C        0.0625        0.648148        0.16947        0.2        
C_Base_COOH        C        0.09375        0.592592        0.16947        0.08        
C1        C        0.125        0.018519        0.16947        0        
C2        C        0.15625        0.074075        0.16947        0        
C3        C        0.125        0.092592        0.16947        0        
C4        C        0.15625        0.037037        0.16947        0        
C1        C        0.125        0.12963        0.16947        0        
C2        C        0.15625        0.185185        0.16947        0        
C3        C        0.125        0.203703        0.16947        0        
C4        C        0.15625        0.148148        0.16947        0        
C1        C        0.125        0.24074099999999998        0.16947        0        
C2        C        0.15625        0.296297        0.16947        0        
C3        C        0.125        0.314815        0.16947        0        
C4        C        0.15625        0.259259        0.16947        0        
C1        C        0.125        0.351852        0.16947        0        
C2        C        0.15625        0.407408        0.16947        0        
C3        C        0.125        0.425925        0.16947        0        
C4        C        0.15625        0.37037        0.16947        0        
C1        C        0.125        0.46296300000000007        0.16947        0        
C2        C        0.15625        0.518519        0.16947        0        
C3        C        0.125        0.537037        0.16947        0        
C4        C        0.15625        0.481481        0.16947        0        
C1        C        0.125        0.574075        0.16947        0        
C2        C        0.15625        0.62963        0.16947        0        
C3        C        0.125        0.648148        0.16947        0        
C4        C        0.15625        0.592592        0.16947        0        
C1        C        0.1875        0.018519        0.16947        0        
C2        C        0.21875        0.074075        0.16947        0        
C3        C        0.1875        0.092592        0.16947        0        
C4        C        0.21875        0.037037        0.16947        0        
C1        C        0.1875        0.12963        0.16947        0        
C2        C        0.21875        0.185185        0.16947        0        
C3        C        0.1875        0.203703        0.16947        0        
C4        C        0.21875        0.148148        0.16947        0        
C1        C        0.1875        0.24074099999999998        0.16947        0        
C2        C        0.21875        0.296297        0.16947        0        
C3        C        0.1875        0.314815        0.16947        0        
C4        C        0.21875        0.259259        0.16947        0        
C1        C        0.1875        0.351852        0.16947        0        
C2        C        0.21875        0.407408        0.16947        0        
C3        C        0.1875        0.425925        0.16947        0        
C4        C        0.21875        0.37037        0.16947        0        
C1        C        0.1875        0.46296300000000007        0.16947        0        
C2        C        0.21875        0.518519        0.16947        0        
C3        C        0.1875        0.537037        0.16947        0        
C4        C        0.21875        0.481481        0.16947        0        
C1        C        0.1875        0.574075        0.16947        0        
C2        C        0.21875        0.62963        0.16947        0        
C3        C        0.1875        0.648148        0.16947        0        
C4        C        0.21875        0.592592        0.16947        0        
C1        C        0.25        0.018519        0.16947        0        
C2        C        0.28125        0.074075        0.16947        0        
C3        C        0.25        0.092592        0.16947        0        
C4        C        0.28125        0.037037        0.16947        0        
C1        C        0.25        0.12963        0.16947        0        
C2        C        0.28125        0.185185        0.16947        0        
C3        C        0.25        0.203703        0.16947        0        
C4        C        0.28125        0.148148        0.16947        0        
C1        C        0.25        0.24074099999999998        0.16947        0        
C2        C        0.28125        0.296297        0.16947        0        
C3        C        0.25        0.314815        0.16947        0        
C4        C        0.28125        0.259259        0.16947        0        
C1        C        0.25        0.351852        0.16947        0        
C2        C        0.28125        0.407408        0.16947        0        
C3        C        0.25        0.425925        0.16947        0        
C4        C        0.28125        0.37037        0.16947        0        
C1        C        0.25        0.46296300000000007        0.16947        0        
C2        C        0.28125        0.518519        0.16947        0        
C3        C        0.25        0.537037        0.16947        0        
C4        C        0.28125        0.481481        0.16947        0        
C1        C        0.25        0.574075        0.16947        0        
C2        C        0.28125        0.62963        0.16947        0        
C3        C        0.25        0.648148        0.16947        0        
C4        C        0.28125        0.592592        0.16947        0        
C1        C        0.3125        0.018519        0.16947        0        
C2        C        0.34375        0.074075        0.16947        0        
C3        C        0.3125        0.092592        0.16947        0        
C4        C        0.34375        0.037037        0.16947        0        
C1        C        0.3125        0.12963        0.16947        0        
C2        C        0.34375        0.185185        0.16947        0        
C3        C        0.3125        0.203703        0.16947        0        
C4        C        0.34375        0.148148        0.16947        0        
C1        C        0.3125        0.24074099999999998        0.16947        0        
C2        C        0.34375        0.296297        0.16947        0        
C3        C        0.3125        0.314815        0.16947        0        
C4        C        0.34375        0.259259        0.16947        0        
C1        C        0.3125        0.351852        0.16947        0        
C2        C        0.34375        0.407408        0.16947        0        
C3        C        0.3125        0.425925        0.16947        0        
C4        C        0.34375        0.37037        0.16947        0        
C1        C        0.3125        0.46296300000000007        0.16947        0        
C2        C        0.34375        0.518519        0.16947        0        
C3        C        0.3125        0.537037        0.16947        0        
C4        C        0.34375        0.481481        0.16947        0        
C1        C        0.3125        0.574075        0.16947        0        
C2        C        0.34375        0.62963        0.16947        0        
C3        C        0.3125        0.648148        0.16947        0        
C4        C        0.34375        0.592592        0.16947        0        
C1        C        0.375        0.018519        0.16947        0        
C2        C        0.40625        0.074075        0.16947        0        
C3        C        0.375        0.092592        0.16947        0        
C4        C        0.40625        0.037037        0.16947        0        
C1        C        0.375        0.12963        0.16947        0        
C2        C        0.40625        0.185185        0.16947        0        
C3        C        0.375        0.203703        0.16947        0        
C4        C        0.40625        0.148148        0.16947        0        
C1        C        0.375        0.24074099999999998        0.16947        0        
C2        C        0.40625        0.296297        0.16947        0        
C3        C        0.375        0.314815        0.16947        0        
C4        C        0.40625        0.259259        0.16947        0        
C1        C        0.375        0.351852        0.16947        0        
C2        C        0.40625        0.407408        0.16947        0        
C3        C        0.375        0.425925        0.16947        0        
C4        C        0.40625        0.37037        0.16947        0        
C1        C        0.375        0.46296300000000007        0.16947        0        
C2        C        0.40625        0.518519        0.16947        0        
C3        C        0.375        0.537037        0.16947        0        
C4        C        0.40625        0.481481        0.16947        0        
C1        C        0.375        0.574075        0.16947        0        
C2        C        0.40625        0.62963        0.16947        0        
C3        C        0.375        0.648148        0.16947        0        
C4        C        0.40625        0.592592        0.16947        0        
C1        C        0.4375        0.018519        0.16947        0        
C2        C        0.46875        0.074075        0.16947        0        
C3        C        0.4375        0.092592        0.16947        0        
C4        C        0.46875        0.037037        0.16947        0        
C1        C        0.4375        0.12963        0.16947        0        
C2        C        0.46875        0.185185        0.16947        0        
C3        C        0.4375        0.203703        0.16947        0        
C4        C        0.46875        0.148148        0.16947        0        
C1        C        0.4375        0.24074099999999998        0.16947        0        
C2        C        0.46875        0.296297        0.16947        0        
C3        C        0.4375        0.314815        0.16947        0        
C4        C        0.46875        0.259259        0.16947        0        
C1        C        0.4375        0.351852        0.16947        0        
C2        C        0.46875        0.407408        0.16947        0        
C3        C        0.4375        0.425925        0.16947        0        
C4        C        0.46875        0.37037        0.16947        0        
C1        C        0.4375        0.46296300000000007        0.16947        0        
C2        C        0.46875        0.518519        0.16947        0        
C3        C        0.4375        0.537037        0.16947        0        
C4        C        0.46875        0.481481        0.16947        0        
C1        C        0.4375        0.574075        0.16947        0        
C2        C        0.46875        0.62963        0.16947        0        
C3        C        0.4375        0.648148        0.16947        0        
C4        C        0.46875        0.592592        0.16947        0        
C1        C        0.5        0.018519        0.16947        0        
C2        C        0.53125        0.074075        0.16947        0        
C3        C        0.5        0.092592        0.16947        0        
C4        C        0.53125        0.037037        0.16947        0        
C1        C        0.5        0.12963        0.16947        0        
C2        C        0.53125        0.185185        0.16947        0        
C3        C        0.5        0.203703        0.16947        0        
C4        C        0.53125        0.148148        0.16947        0        
C1        C        0.5        0.24074099999999998        0.16947        0        
C2        C        0.53125        0.296297        0.16947        0        
C3        C        0.5        0.314815        0.16947        0        
C4        C        0.53125        0.259259        0.16947        0        
C1        C        0.5        0.351852        0.16947        0        
C2        C        0.53125        0.407408        0.16947        0        
C3        C        0.5        0.425925        0.16947        0        
C4        C        0.53125        0.37037        0.16947        0        
C1        C        0.5        0.46296300000000007        0.16947        0        
C2        C        0.53125        0.518519        0.16947        0        
C3        C        0.5        0.537037        0.16947        0        
C4        C        0.53125        0.481481        0.16947        0        
C1        C        0.5        0.574075        0.16947        0        
C2        C        0.53125        0.62963        0.16947        0        
C3        C        0.5        0.648148        0.16947        0        
C4        C        0.53125        0.592592        0.16947        0        
C1        C        0.5625        0.018519        0.16947        0        
C2        C        0.59375        0.074075        0.16947        0        
C3        C        0.5625        0.092592        0.16947        0        
C4        C        0.59375        0.037037        0.16947        0        
C1        C        0.5625        0.12963        0.16947        0        
C2        C        0.59375        0.185185        0.16947        0        
C3        C        0.5625        0.203703        0.16947        0        
C4        C        0.59375        0.148148        0.16947        0        
C1        C        0.5625        0.24074099999999998        0.16947        0        
C2        C        0.59375        0.296297        0.16947        0        
C3        C        0.5625        0.314815        0.16947        0        
C4        C        0.59375        0.259259        0.16947        0        
C1        C        0.5625        0.351852        0.16947        0        
C2        C        0.59375        0.407408        0.16947        0        
C3        C        0.5625        0.425925        0.16947        0        
C4        C        0.59375        0.37037        0.16947        0        
C1        C        0.5625        0.46296300000000007        0.16947        0        
C2        C        0.59375        0.518519        0.16947        0        
C3        C        0.5625        0.537037        0.16947        0        
C4        C        0.59375        0.481481        0.16947        0        
C1        C        0.5625        0.574075        0.16947        0        
C2        C        0.59375        0.62963        0.16947        0        
C3        C        0.5625        0.648148        0.16947        0        
C4        C        0.59375        0.592592        0.16947        0        
C1        C        0.625        0.018519        0.16947        0        
C2        C        0.65625        0.074075        0.16947        0        
C3        C        0.625        0.092592        0.16947        0        
C4        C        0.65625        0.037037        0.16947        0        
C1        C        0.625        0.12963        0.16947        0        
C2        C        0.65625        0.185185        0.16947        0        
C3        C        0.625        0.203703        0.16947        0        
C4        C        0.65625        0.148148        0.16947        0        
C1        C        0.625        0.24074099999999998        0.16947        0        
C2        C        0.65625        0.296297        0.16947        0        
C3        C        0.625        0.314815        0.16947        0        
C4        C        0.65625        0.259259        0.16947        0        
C1        C        0.625        0.351852        0.16947        0        
C2        C        0.65625        0.407408        0.16947        0        
C3        C        0.625        0.425925        0.16947        0        
C4        C        0.65625        0.37037        0.16947        0        
C1        C        0.625        0.46296300000000007        0.16947        0        
C2        C        0.65625        0.518519        0.16947        0        
C3        C        0.625        0.537037        0.16947        0        
C4        C        0.65625        0.481481        0.16947        0        
C1        C        0.625        0.574075        0.16947        0        
C2        C        0.65625        0.62963        0.16947        0        
C3        C        0.625        0.648148        0.16947        0        
C4        C        0.65625        0.592592        0.16947        0        
C1        C        0.6875        0.018519        0.16947        0        
C2        C        0.71875        0.074075        0.16947        0        
C3        C        0.6875        0.092592        0.16947        0        
C4        C        0.71875        0.037037        0.16947        0        
C1        C        0.6875        0.12963        0.16947        0        
C2        C        0.71875        0.185185        0.16947        0        
C3        C        0.6875        0.203703        0.16947        0        
C4        C        0.71875        0.148148        0.16947        0        
C1        C        0.6875        0.24074099999999998        0.16947        0        
C2        C        0.71875        0.296297        0.16947        0        
C3        C        0.6875        0.314815        0.16947        0        
C4        C        0.71875        0.259259        0.16947        0        
C1        C        0.6875        0.351852        0.16947        0        
C2        C        0.71875        0.407408        0.16947        0        
C3        C        0.6875        0.425925        0.16947        0        
C4        C        0.71875        0.37037        0.16947        0        
C1        C        0.6875        0.46296300000000007        0.16947        0        
C2        C        0.71875        0.518519        0.16947        0        
C3        C        0.6875        0.537037        0.16947        0        
C4        C        0.71875        0.481481        0.16947        0        
C1        C        0.6875        0.574075        0.16947        0        
C2        C        0.71875        0.62963        0.16947        0        
C3        C        0.6875        0.648148        0.16947        0        
C4        C        0.71875        0.592592        0.16947        0        
C1        C        0.75        0.018519        0.16947        0        
C2        C        0.78125        0.074075        0.16947        0        
C3        C        0.75        0.092592        0.16947        0        
C4        C        0.78125        0.037037        0.16947        0        
C1        C        0.75        0.12963        0.16947        0        
C2        C        0.78125        0.185185        0.16947        0        
C3        C        0.75        0.203703        0.16947        0        
C4        C        0.78125        0.148148        0.16947        0        
C1        C        0.75        0.24074099999999998        0.16947        0        
C2        C        0.78125        0.296297        0.16947        0        
C3        C        0.75        0.314815        0.16947        0        
C4        C        0.78125        0.259259        0.16947        0        
C1        C        0.75        0.351852        0.16947        0        
C2        C        0.78125        0.407408        0.16947        0        
C3        C        0.75        0.425925        0.16947        0        
C4        C        0.78125        0.37037        0.16947        0        
C1        C        0.75        0.46296300000000007        0.16947        0        
C2        C        0.78125        0.518519        0.16947        0        
C3        C        0.75        0.537037        0.16947        0        
C4        C        0.78125        0.481481        0.16947        0        
C1        C        0.75        0.574075        0.16947        0        
C2        C        0.78125        0.62963        0.16947        0        
C3        C        0.75        0.648148        0.16947        0        
C4        C        0.78125        0.592592        0.16947        0        
C1        C        0.8125        0.018519        0.16947        0        
C2        C        0.84375        0.074075        0.16947        0        
C3        C        0.8125        0.092592        0.16947        0        
C4        C        0.84375        0.037037        0.16947        0        
C1        C        0.8125        0.12963        0.16947        0        
C2        C        0.84375        0.185185        0.16947        0        
C3        C        0.8125        0.203703        0.16947        0        
C4        C        0.84375        0.148148        0.16947        0        
C1        C        0.8125        0.24074099999999998        0.16947        0        
C2        C        0.84375        0.296297        0.16947        0        
C3        C        0.8125        0.314815        0.16947        0        
C4        C        0.84375        0.259259        0.16947        0        
C1        C        0.8125        0.351852        0.16947        0        
C2        C        0.84375        0.407408        0.16947        0        
C3        C        0.8125        0.425925        0.16947        0        
C4        C        0.84375        0.37037        0.16947        0        
C1        C        0.8125        0.46296300000000007        0.16947        0        
C2        C        0.84375        0.518519        0.16947        0        
C3        C        0.8125        0.537037        0.16947        0        
C4        C        0.84375        0.481481        0.16947        0        
C1        C        0.8125        0.574075        0.16947        0        
C2        C        0.84375        0.62963        0.16947        0        
C3        C        0.8125        0.648148        0.16947        0        
C4        C        0.84375        0.592592        0.16947        0        
C1        C        0.875        0.018519        0.16947        0        
C2        C        0.9062500000000001        0.074075        0.16947        0        
C3        C        0.875        0.092592        0.16947        0        
C4        C        0.9062500000000001        0.037037        0.16947        0        
C1        C        0.875        0.12963        0.16947        0        
C2        C        0.9062500000000001        0.185185        0.16947        0        
C3        C        0.875        0.203703        0.16947        0        
C4        C        0.9062500000000001        0.148148        0.16947        0        
C1        C        0.875        0.24074099999999998        0.16947        0        
C2        C        0.9062500000000001        0.296297        0.16947        0        
C3        C        0.875        0.314815        0.16947        0        
C4        C        0.9062500000000001        0.259259        0.16947        0        
C1        C        0.875        0.351852        0.16947        0        
C2        C        0.9062500000000001        0.407408        0.16947        0        
C3        C        0.875        0.425925        0.16947        0        
C4        C        0.9062500000000001        0.37037        0.16947        0        
C1        C        0.875        0.46296300000000007        0.16947        0        
C2        C        0.9062500000000001        0.518519        0.16947        0        
C3        C        0.875        0.537037        0.16947        0        
C4        C        0.9062500000000001        0.481481        0.16947        0        
C1        C        0.875        0.574075        0.16947        0        
C2        C        0.9062500000000001        0.62963        0.16947        0        
C3        C        0.875        0.648148        0.16947        0        
C4        C        0.9062500000000001        0.592592        0.16947        0        
C1        C        0.9375        0.018519        0.16947        0        
C2        C        0.9687500000000001        0.074075        0.16947        0        
C3        C        0.9375        0.092592        0.16947        0        
C4        C        0.9687500000000001        0.037037        0.16947        0        
C1        C        0.9375        0.12963        0.16947        0        
C2        C        0.9687500000000001        0.185185        0.16947        0        
C3        C        0.9375        0.203703        0.16947        0        
C4        C        0.9687500000000001        0.148148        0.16947        0        
C1        C        0.9375        0.24074099999999998        0.16947        0        
C2        C        0.9687500000000001        0.296297        0.16947        0        
C3        C        0.9375        0.314815        0.16947        0        
C4        C        0.9687500000000001        0.259259        0.16947        0        
C1        C        0.9375        0.351852        0.16947        0        
C2        C        0.9687500000000001        0.407408        0.16947        0        
C3        C        0.9375        0.425925        0.16947        0        
C4        C        0.9687500000000001        0.37037        0.16947        0        
C1        C        0.9375        0.46296300000000007        0.16947        0        
C2        C        0.9687500000000001        0.518519        0.16947        0        
C3        C        0.9375        0.537037        0.16947        0        
C4        C        0.9687500000000001        0.481481        0.16947        0        
C1        C        0.9375        0.574075        0.16947        0        
C2        C        0.9687500000000001        0.62963        0.16947        0        
C3        C        0.9375        0.648148        0.16947        0        
C4        C        0.9687500000000001        0.592592        0.16947        0        
C1        C        0.0        0.685186        0.16947        0        
C1        C        0.0625        0.685186        0.16947        0        
C1        C        0.125        0.685186        0.16947        0        
C1        C        0.1875        0.685186        0.16947        0        
C1        C        0.25        0.685186        0.16947        0        
C1        C        0.3125        0.685186        0.16947        0        
C1        C        0.375        0.685186        0.16947        0        
C1        C        0.4375        0.685186        0.16947        0        
C1        C        0.5        0.685186        0.16947        0        
C1        C        0.5625        0.685186        0.16947        0        
C1        C        0.625        0.685186        0.16947        0        
C1        C        0.6875        0.685186        0.16947        0        
C1        C        0.75        0.685186        0.16947        0        
C1        C        0.8125        0.685186        0.16947        0        
C1        C        0.875        0.685186        0.16947        0        
C1        C        0.9375        0.685186        0.16947        0        
C2        C        0.03125        0.740741        0.16947        0        
C2        C        0.09375        0.740741        0.16947        0        
C2        C        0.15625        0.740741        0.16947        0        
C2        C        0.21875        0.740741        0.16947        0        
C2        C        0.28125        0.740741        0.16947        0        
C2        C        0.34375        0.740741        0.16947        0        
C2        C        0.40625        0.740741        0.16947        0        
C2        C        0.46875        0.740741        0.16947        0        
C2        C        0.53125        0.740741        0.16947        0        
C2        C        0.59375        0.740741        0.16947        0        
C2        C        0.65625        0.740741        0.16947        0        
C2        C        0.71875        0.740741        0.16947        0        
C2        C        0.78125        0.740741        0.16947        0        
C2        C        0.84375        0.740741        0.16947        0        
C2        C        0.9062500000000001        0.740741        0.16947        0        
C2        C        0.9687500000000001        0.740741        0.16947        0        
C3        C        0.0        0.759259        0.16947        0        
C3        C        0.0625        0.759259        0.16947        0        
C3        C        0.125        0.759259        0.16947        0        
C3        C        0.1875        0.759259        0.16947        0        
C3        C        0.25        0.759259        0.16947        0        
C3        C        0.3125        0.759259        0.16947        0        
C3        C        0.375        0.759259        0.16947        0        
C3        C        0.4375        0.759259        0.16947        0        
C3        C        0.5        0.759259        0.16947        0        
C3        C        0.5625        0.759259        0.16947        0        
C3        C        0.625        0.759259        0.16947        0        
C3        C        0.6875        0.759259        0.16947        0        
C3        C        0.75        0.759259        0.16947        0        
C3        C        0.8125        0.759259        0.16947        0        
C3        C        0.875        0.759259        0.16947        0        
C3        C        0.9375        0.759259        0.16947        0        
C4        C        0.03125        0.703703        0.16947        0        
C4        C        0.09375        0.703703        0.16947        0        
C4        C        0.15625        0.703703        0.16947        0        
C4        C        0.21875        0.703703        0.16947        0        
C4        C        0.28125        0.703703        0.16947        0        
C4        C        0.34375        0.703703        0.16947        0        
C4        C        0.40625        0.703703        0.16947        0        
C4        C        0.46875        0.703703        0.16947        0        
C4        C        0.53125        0.703703        0.16947        0        
C4        C        0.59375        0.703703        0.16947        0        
C4        C        0.65625        0.703703        0.16947        0        
C4        C        0.71875        0.703703        0.16947        0        
C4        C        0.78125        0.703703        0.16947        0        
C4        C        0.84375        0.703703        0.16947        0        
C4        C        0.9062500000000001        0.703703        0.16947        0        
C4        C        0.9687500000000001        0.703703        0.16947        0        
C1        C        0.0        0.796297        0.16947        0        
C1        C        0.0625        0.796297        0.16947        0        
C1        C        0.125        0.796297        0.16947        0        
C1        C        0.1875        0.796297        0.16947        0        
C1        C        0.25        0.796297        0.16947        0        
C1        C        0.3125        0.796297        0.16947        0        
C1        C        0.375        0.796297        0.16947        0        
C1        C        0.4375        0.796297        0.16947        0        
C1        C        0.5        0.796297        0.16947        0        
C1        C        0.5625        0.796297        0.16947        0        
C1        C        0.625        0.796297        0.16947        0        
C1        C        0.6875        0.796297        0.16947        0        
C1        C        0.75        0.796297        0.16947        0        
C1        C        0.8125        0.796297        0.16947        0        
C1        C        0.875        0.796297        0.16947        0        
C1        C        0.9375        0.796297        0.16947        0        
C2        C        0.03125        0.851852        0.16947        0        
C2        C        0.09375        0.851852        0.16947        0        
C2        C        0.15625        0.851852        0.16947        0        
C2        C        0.21875        0.851852        0.16947        0        
C2        C        0.28125        0.851852        0.16947        0        
C2        C        0.34375        0.851852        0.16947        0        
C2        C        0.40625        0.851852        0.16947        0        
C2        C        0.46875        0.851852        0.16947        0        
C2        C        0.53125        0.851852        0.16947        0        
C2        C        0.59375        0.851852        0.16947        0        
C2        C        0.65625        0.851852        0.16947        0        
C2        C        0.71875        0.851852        0.16947        0        
C2        C        0.78125        0.851852        0.16947        0        
C2        C        0.84375        0.851852        0.16947        0        
C2        C        0.9062500000000001        0.851852        0.16947        0        
C2        C        0.9687500000000001        0.851852        0.16947        0        
C3        C        0.0        0.87037        0.16947        0        
C3        C        0.0625        0.87037        0.16947        0        
C3        C        0.125        0.87037        0.16947        0        
C3        C        0.1875        0.87037        0.16947        0        
C3        C        0.25        0.87037        0.16947        0        
C3        C        0.3125        0.87037        0.16947        0        
C3        C        0.375        0.87037        0.16947        0        
C3        C        0.4375        0.87037        0.16947        0        
C3        C        0.5        0.87037        0.16947        0        
C3        C        0.5625        0.87037        0.16947        0        
C3        C        0.625        0.87037        0.16947        0        
C3        C        0.6875        0.87037        0.16947        0        
C3        C        0.75        0.87037        0.16947        0        
C3        C        0.8125        0.87037        0.16947        0        
C3        C        0.875        0.87037        0.16947        0        
C3        C        0.9375        0.87037        0.16947        0        
C4        C        0.03125        0.814814        0.16947        0        
C4        C        0.09375        0.814814        0.16947        0        
C4        C        0.15625        0.814814        0.16947        0        
C4        C        0.21875        0.814814        0.16947        0        
C4        C        0.28125        0.814814        0.16947        0        
C4        C        0.34375        0.814814        0.16947        0        
C4        C        0.40625        0.814814        0.16947        0        
C4        C        0.46875        0.814814        0.16947        0        
C4        C        0.53125        0.814814        0.16947        0        
C4        C        0.59375        0.814814        0.16947        0        
C4        C        0.65625        0.814814        0.16947        0        
C4        C        0.71875        0.814814        0.16947        0        
C4        C        0.78125        0.814814        0.16947        0        
C4        C        0.84375        0.814814        0.16947        0        
C4        C        0.9062500000000001        0.814814        0.16947        0        
C4        C        0.9687500000000001        0.814814        0.16947        0        
C1        C        0.0        0.907408        0.16947        0        
C1        C        0.0625        0.907408        0.16947        0        
C1        C        0.125        0.907408        0.16947        0        
C1        C        0.1875        0.907408        0.16947        0        
C1        C        0.25        0.907408        0.16947        0        
C1        C        0.3125        0.907408        0.16947        0        
C1        C        0.375        0.907408        0.16947        0        
C1        C        0.4375        0.907408        0.16947        0        
C1        C        0.5        0.907408        0.16947        0        
C1        C        0.5625        0.907408        0.16947        0        
C1        C        0.625        0.907408        0.16947        0        
C1        C        0.6875        0.907408        0.16947        0        
C1        C        0.75        0.907408        0.16947        0        
C1        C        0.8125        0.907408        0.16947        0        
C1        C        0.875        0.907408        0.16947        0        
C1        C        0.9375        0.907408        0.16947        0        
C2        C        0.03125        0.962963        0.16947        0        
C2        C        0.09375        0.962963        0.16947        0        
C2        C        0.15625        0.962963        0.16947        0        
C2        C        0.21875        0.962963        0.16947        0        
C2        C        0.28125        0.962963        0.16947        0        
C2        C        0.34375        0.962963        0.16947        0        
C2        C        0.40625        0.962963        0.16947        0        
C2        C        0.46875        0.962963        0.16947        0        
C2        C        0.53125        0.962963        0.16947        0        
C2        C        0.59375        0.962963        0.16947        0        
C2        C        0.65625        0.962963        0.16947        0        
C2        C        0.71875        0.962963        0.16947        0        
C2        C        0.78125        0.962963        0.16947        0        
C2        C        0.84375        0.962963        0.16947        0        
C2        C        0.9062500000000001        0.962963        0.16947        0        
C2        C        0.9687500000000001        0.962963        0.16947        0        
C3        C        0.0        0.9814809999999999        0.16947        0        
C3        C        0.0625        0.9814809999999999        0.16947        0        
C3        C        0.125        0.9814809999999999        0.16947        0        
C3        C        0.1875        0.9814809999999999        0.16947        0        
C3        C        0.25        0.9814809999999999        0.16947        0        
C3        C        0.3125        0.9814809999999999        0.16947        0        
C3        C        0.375        0.9814809999999999        0.16947        0        
C3        C        0.4375        0.9814809999999999        0.16947        0        
C3        C        0.5        0.9814809999999999        0.16947        0        
C3        C        0.5625        0.9814809999999999        0.16947        0        
C3        C        0.625        0.9814809999999999        0.16947        0        
C3        C        0.6875        0.9814809999999999        0.16947        0        
C3        C        0.75        0.9814809999999999        0.16947        0        
C3        C        0.8125        0.9814809999999999        0.16947        0        
C3        C        0.875        0.9814809999999999        0.16947        0        
C3        C        0.9375        0.9814809999999999        0.16947        0        
C4        C        0.03125        0.925925        0.16947        0        
C4        C        0.09375        0.925925        0.16947        0        
C4        C        0.15625        0.925925        0.16947        0        
C4        C        0.21875        0.925925        0.16947        0        
C4        C        0.28125        0.925925        0.16947        0        
C4        C        0.34375        0.925925        0.16947        0        
C4        C        0.40625        0.925925        0.16947        0        
C4        C        0.46875        0.925925        0.16947        0        
C4        C        0.53125        0.925925        0.16947        0        
C4        C        0.59375        0.925925        0.16947        0        
C4        C        0.65625        0.925925        0.16947        0        
C4        C        0.71875        0.925925        0.16947        0        
C4        C        0.78125        0.925925        0.16947        0        
C4        C        0.84375        0.925925        0.16947        0        
C4        C        0.9062500000000001        0.925925        0.16947        0        
C4        C        0.9687500000000001        0.925925        0.16947        0        
C1        C        0.0        0.018519        0.4139955474452554        0        
C2        C        0.03125        0.074075        0.4139955474452554        0        
C3        C        0.0        0.092592        0.4139955474452554        0        
C4        C        0.03125        0.037037        0.4139955474452554        0        
C1        C        0.0        0.12963        0.4139955474452554        0        
C2        C        0.03125        0.185185        0.4139955474452554        0        
C3        C        0.0        0.203703        0.4139955474452554        0        
C4        C        0.03125        0.148148        0.4139955474452554        0        
C1        C        0.0        0.24074099999999998        0.4139955474452554        0        
C2        C        0.03125        0.296297        0.4139955474452554        0        
C3        C        0.0        0.314815        0.4139955474452554        0        
C4        C        0.03125        0.259259        0.4139955474452554        0        
C1        C        0.0        0.351852        0.4139955474452554        0        
C2        C        0.03125        0.407408        0.4139955474452554        0        
C3        C        0.0        0.425925        0.4139955474452554        0        
C4        C        0.03125        0.37037        0.4139955474452554        0        
C1        C        0.0        0.46296300000000007        0.4139955474452554        0        
C2        C        0.03125        0.518519        0.4139955474452554        0        
C3        C        0.0        0.537037        0.4139955474452554        0        
C4        C        0.03125        0.481481        0.4139955474452554        0        
C1        C        0.0        0.574075        0.4139955474452554        0        
C2        C        0.03125        0.62963        0.4139955474452554        0        
C3        C        0.0        0.648148        0.4139955474452554        0        
C4        C        0.03125        0.592592        0.4139955474452554        0        
C1        C        0.0625        0.018519        0.4139955474452554        0        
C2        C        0.09375        0.074075        0.4139955474452554        0        
C3        C        0.0625        0.092592        0.4139955474452554        0        
C4        C        0.09375        0.037037        0.4139955474452554        0        
C1        C        0.0625        0.12963        0.4139955474452554        0        
C2        C        0.09375        0.185185        0.4139955474452554        0        
C3        C        0.0625        0.203703        0.4139955474452554        0        
C4        C        0.09375        0.148148        0.4139955474452554        0        
C1        C        0.0625        0.24074099999999998        0.4139955474452554        0        
C2        C        0.09375        0.296297        0.4139955474452554        0        
C3        C        0.0625        0.314815        0.4139955474452554        0        
C4        C        0.09375        0.259259        0.4139955474452554        0        
C1        C        0.0625        0.351852        0.4139955474452554        0        
C2        C        0.09375        0.407408        0.4139955474452554        0        
C3        C        0.0625        0.425925        0.4139955474452554        0        
C4        C        0.09375        0.37037        0.4139955474452554        0        
C1        C        0.0625        0.46296300000000007        0.4139955474452554        0        
C2        C        0.09375        0.518519        0.4139955474452554        0        
C3        C        0.0625        0.537037        0.4139955474452554        0        
C4        C        0.09375        0.481481        0.4139955474452554        0        
C1        C        0.0625        0.574075        0.4139955474452554        0        
C2        C        0.09375        0.62963        0.4139955474452554        0        
C3        C        0.0625        0.648148        0.4139955474452554        0        
C4        C        0.09375        0.592592        0.4139955474452554        0        
C1        C        0.125        0.018519        0.4139955474452554        0        
C2        C        0.15625        0.074075        0.4139955474452554        0        
C3        C        0.125        0.092592        0.4139955474452554        0        
C4        C        0.15625        0.037037        0.4139955474452554        0        
C1        C        0.125        0.12963        0.4139955474452554        0        
C2        C        0.15625        0.185185        0.4139955474452554        0        
C3        C        0.125        0.203703        0.4139955474452554        0        
C4        C        0.15625        0.148148        0.4139955474452554        0        
C1        C        0.125        0.24074099999999998        0.4139955474452554        0        
C2        C        0.15625        0.296297        0.4139955474452554        0        
C3        C        0.125        0.314815        0.4139955474452554        0        
C4        C        0.15625        0.259259        0.4139955474452554        0        
C1        C        0.125        0.351852        0.4139955474452554        0        
C2        C        0.15625        0.407408        0.4139955474452554        0        
C3        C        0.125        0.425925        0.4139955474452554        0        
C4        C        0.15625        0.37037        0.4139955474452554        0        
C1        C        0.125        0.46296300000000007        0.4139955474452554        0        
C2        C        0.15625        0.518519        0.4139955474452554        0        
C3        C        0.125        0.537037        0.4139955474452554        0        
C4        C        0.15625        0.481481        0.4139955474452554        0        
C1        C        0.125        0.574075        0.4139955474452554        0        
C2        C        0.15625        0.62963        0.4139955474452554        0        
C3        C        0.125        0.648148        0.4139955474452554        0        
C4        C        0.15625        0.592592        0.4139955474452554        0        
C1        C        0.1875        0.018519        0.4139955474452554        0        
C2        C        0.21875        0.074075        0.4139955474452554        0        
C3        C        0.1875        0.092592        0.4139955474452554        0        
C4        C        0.21875        0.037037        0.4139955474452554        0        
C1        C        0.1875        0.12963        0.4139955474452554        0        
C2        C        0.21875        0.185185        0.4139955474452554        0        
C3        C        0.1875        0.203703        0.4139955474452554        0        
C4        C        0.21875        0.148148        0.4139955474452554        0        
C1        C        0.1875        0.24074099999999998        0.4139955474452554        0        
C2        C        0.21875        0.296297        0.4139955474452554        0        
C3        C        0.1875        0.314815        0.4139955474452554        0        
C4        C        0.21875        0.259259        0.4139955474452554        0        
C1        C        0.1875        0.351852        0.4139955474452554        0        
C2        C        0.21875        0.407408        0.4139955474452554        0        
C3        C        0.1875        0.425925        0.4139955474452554        0        
C4        C        0.21875        0.37037        0.4139955474452554        0        
C1        C        0.1875        0.46296300000000007        0.4139955474452554        0        
C2        C        0.21875        0.518519        0.4139955474452554        0        
C3        C        0.1875        0.537037        0.4139955474452554        0        
C4        C        0.21875        0.481481        0.4139955474452554        0        
C1        C        0.1875        0.574075        0.4139955474452554        0        
C2        C        0.21875        0.62963        0.4139955474452554        0        
C3        C        0.1875        0.648148        0.4139955474452554        0        
C4        C        0.21875        0.592592        0.4139955474452554        0        
C1        C        0.25        0.018519        0.4139955474452554        0        
C2        C        0.28125        0.074075        0.4139955474452554        0        
C3        C        0.25        0.092592        0.4139955474452554        0        
C4        C        0.28125        0.037037        0.4139955474452554        0        
C1        C        0.25        0.12963        0.4139955474452554        0        
C2        C        0.28125        0.185185        0.4139955474452554        0        
C3        C        0.25        0.203703        0.4139955474452554        0        
C4        C        0.28125        0.148148        0.4139955474452554        0        
C1        C        0.25        0.24074099999999998        0.4139955474452554        0        
C2        C        0.28125        0.296297        0.4139955474452554        0        
C3        C        0.25        0.314815        0.4139955474452554        0        
C4        C        0.28125        0.259259        0.4139955474452554        0        
C1        C        0.25        0.351852        0.4139955474452554        0        
C2        C        0.28125        0.407408        0.4139955474452554        0        
C3        C        0.25        0.425925        0.4139955474452554        0        
C4        C        0.28125        0.37037        0.4139955474452554        0        
C1        C        0.25        0.46296300000000007        0.4139955474452554        0        
C2        C        0.28125        0.518519        0.4139955474452554        0        
C3        C        0.25        0.537037        0.4139955474452554        0        
C4        C        0.28125        0.481481        0.4139955474452554        0        
C1        C        0.25        0.574075        0.4139955474452554        0        
C2        C        0.28125        0.62963        0.4139955474452554        0        
C3        C        0.25        0.648148        0.4139955474452554        0        
C4        C        0.28125        0.592592        0.4139955474452554        0        
C1        C        0.3125        0.018519        0.4139955474452554        0        
C2        C        0.34375        0.074075        0.4139955474452554        0        
C3        C        0.3125        0.092592        0.4139955474452554        0        
C4        C        0.34375        0.037037        0.4139955474452554        0        
C1        C        0.3125        0.12963        0.4139955474452554        0        
C2        C        0.34375        0.185185        0.4139955474452554        0        
C3        C        0.3125        0.203703        0.4139955474452554        0        
C4        C        0.34375        0.148148        0.4139955474452554        0        
C1        C        0.3125        0.24074099999999998        0.4139955474452554        0        
C2        C        0.34375        0.296297        0.4139955474452554        0        
C3        C        0.3125        0.314815        0.4139955474452554        0        
C4        C        0.34375        0.259259        0.4139955474452554        0        
C1        C        0.3125        0.351852        0.4139955474452554        0        
C2        C        0.34375        0.407408        0.4139955474452554        0        
C3        C        0.3125        0.425925        0.4139955474452554        0        
C4        C        0.34375        0.37037        0.4139955474452554        0        
C1        C        0.3125        0.46296300000000007        0.4139955474452554        0        
C2        C        0.34375        0.518519        0.4139955474452554        0        
C3        C        0.3125        0.537037        0.4139955474452554        0        
C4        C        0.34375        0.481481        0.4139955474452554        0        
C1        C        0.3125        0.574075        0.4139955474452554        0        
C2        C        0.34375        0.62963        0.4139955474452554        0        
C3        C        0.3125        0.648148        0.4139955474452554        0        
C4        C        0.34375        0.592592        0.4139955474452554        0        
C1        C        0.375        0.018519        0.4139955474452554        0        
C2        C        0.40625        0.074075        0.4139955474452554        0        
C3        C        0.375        0.092592        0.4139955474452554        0        
C4        C        0.40625        0.037037        0.4139955474452554        0        
C1        C        0.375        0.12963        0.4139955474452554        0        
C2        C        0.40625        0.185185        0.4139955474452554        0        
C3        C        0.375        0.203703        0.4139955474452554        0        
C4        C        0.40625        0.148148        0.4139955474452554        0        
C1        C        0.375        0.24074099999999998        0.4139955474452554        0        
C2        C        0.40625        0.296297        0.4139955474452554        0        
C3        C        0.375        0.314815        0.4139955474452554        0        
C4        C        0.40625        0.259259        0.4139955474452554        0        
C1        C        0.375        0.351852        0.4139955474452554        0        
C2        C        0.40625        0.407408        0.4139955474452554        0        
C3        C        0.375        0.425925        0.4139955474452554        0        
C4        C        0.40625        0.37037        0.4139955474452554        0        
C1        C        0.375        0.46296300000000007        0.4139955474452554        0        
C2        C        0.40625        0.518519        0.4139955474452554        0        
C3        C        0.375        0.537037        0.4139955474452554        0        
C4        C        0.40625        0.481481        0.4139955474452554        0        
C1        C        0.375        0.574075        0.4139955474452554        0        
C2        C        0.40625        0.62963        0.4139955474452554        0        
C3        C        0.375        0.648148        0.4139955474452554        0        
C4        C        0.40625        0.592592        0.4139955474452554        0        
C1        C        0.4375        0.018519        0.4139955474452554        0        
C2        C        0.46875        0.074075        0.4139955474452554        0        
C3        C        0.4375        0.092592        0.4139955474452554        0        
C4        C        0.46875        0.037037        0.4139955474452554        0        
C1        C        0.4375        0.12963        0.4139955474452554        0        
C2        C        0.46875        0.185185        0.4139955474452554        0        
C3        C        0.4375        0.203703        0.4139955474452554        0        
C4        C        0.46875        0.148148        0.4139955474452554        0        
C1        C        0.4375        0.24074099999999998        0.4139955474452554        0        
C2        C        0.46875        0.296297        0.4139955474452554        0        
C3        C        0.4375        0.314815        0.4139955474452554        0        
C4        C        0.46875        0.259259        0.4139955474452554        0        
C1        C        0.4375        0.351852        0.4139955474452554        0        
C2        C        0.46875        0.407408        0.4139955474452554        0        
C3        C        0.4375        0.425925        0.4139955474452554        0        
C4        C        0.46875        0.37037        0.4139955474452554        0        
C1        C        0.4375        0.46296300000000007        0.4139955474452554        0        
C2        C        0.46875        0.518519        0.4139955474452554        0        
C3        C        0.4375        0.537037        0.4139955474452554        0        
C4        C        0.46875        0.481481        0.4139955474452554        0        
C1        C        0.4375        0.574075        0.4139955474452554        0        
C2        C        0.46875        0.62963        0.4139955474452554        0        
C3        C        0.4375        0.648148        0.4139955474452554        0        
C4        C        0.46875        0.592592        0.4139955474452554        0        
C1        C        0.5        0.018519        0.4139955474452554        0        
C2        C        0.53125        0.074075        0.4139955474452554        0        
C3        C        0.5        0.092592        0.4139955474452554        0        
C4        C        0.53125        0.037037        0.4139955474452554        0        
C1        C        0.5        0.12963        0.4139955474452554        0        
C2        C        0.53125        0.185185        0.4139955474452554        0        
C3        C        0.5        0.203703        0.4139955474452554        0        
C4        C        0.53125        0.148148        0.4139955474452554        0        
C1        C        0.5        0.24074099999999998        0.4139955474452554        0        
C2        C        0.53125        0.296297        0.4139955474452554        0        
C3        C        0.5        0.314815        0.4139955474452554        0        
C4        C        0.53125        0.259259        0.4139955474452554        0        
C1        C        0.5        0.351852        0.4139955474452554        0        
C2        C        0.53125        0.407408        0.4139955474452554        0        
C3        C        0.5        0.425925        0.4139955474452554        0        
C4        C        0.53125        0.37037        0.4139955474452554        0        
C1        C        0.5        0.46296300000000007        0.4139955474452554        0        
C2        C        0.53125        0.518519        0.4139955474452554        0        
C3        C        0.5        0.537037        0.4139955474452554        0        
C4        C        0.53125        0.481481        0.4139955474452554        0        
C1        C        0.5        0.574075        0.4139955474452554        0        
C2        C        0.53125        0.62963        0.4139955474452554        0        
C3        C        0.5        0.648148        0.4139955474452554        0        
C4        C        0.53125        0.592592        0.4139955474452554        0        
C1        C        0.5625        0.018519        0.4139955474452554        0        
C2        C        0.59375        0.074075        0.4139955474452554        0        
C3        C        0.5625        0.092592        0.4139955474452554        0        
C4        C        0.59375        0.037037        0.4139955474452554        0        
C1        C        0.5625        0.12963        0.4139955474452554        0        
C2        C        0.59375        0.185185        0.4139955474452554        0        
C3        C        0.5625        0.203703        0.4139955474452554        0        
C4        C        0.59375        0.148148        0.4139955474452554        0        
C1        C        0.5625        0.24074099999999998        0.4139955474452554        0        
C2        C        0.59375        0.296297        0.4139955474452554        0        
C3        C        0.5625        0.314815        0.4139955474452554        0        
C4        C        0.59375        0.259259        0.4139955474452554        0        
C1        C        0.5625        0.351852        0.4139955474452554        0        
C2        C        0.59375        0.407408        0.4139955474452554        0        
C3        C        0.5625        0.425925        0.4139955474452554        0        
C4        C        0.59375        0.37037        0.4139955474452554        0        
C1        C        0.5625        0.46296300000000007        0.4139955474452554        0        
C2        C        0.59375        0.518519        0.4139955474452554        0        
C3        C        0.5625        0.537037        0.4139955474452554        0        
C4        C        0.59375        0.481481        0.4139955474452554        0        
C1        C        0.5625        0.574075        0.4139955474452554        0        
C2        C        0.59375        0.62963        0.4139955474452554        0        
C3        C        0.5625        0.648148        0.4139955474452554        0        
C4        C        0.59375        0.592592        0.4139955474452554        0        
C1        C        0.625        0.018519        0.4139955474452554        0        
C2        C        0.65625        0.074075        0.4139955474452554        0        
C3        C        0.625        0.092592        0.4139955474452554        0        
C4        C        0.65625        0.037037        0.4139955474452554        0        
C1        C        0.625        0.12963        0.4139955474452554        0        
C2        C        0.65625        0.185185        0.4139955474452554        0        
C3        C        0.625        0.203703        0.4139955474452554        0        
C4        C        0.65625        0.148148        0.4139955474452554        0        
C1        C        0.625        0.24074099999999998        0.4139955474452554        0        
C2        C        0.65625        0.296297        0.4139955474452554        0        
C3        C        0.625        0.314815        0.4139955474452554        0        
C4        C        0.65625        0.259259        0.4139955474452554        0        
C1        C        0.625        0.351852        0.4139955474452554        0        
C2        C        0.65625        0.407408        0.4139955474452554        0        
C3        C        0.625        0.425925        0.4139955474452554        0        
C4        C        0.65625        0.37037        0.4139955474452554        0        
C1        C        0.625        0.46296300000000007        0.4139955474452554        0        
C2        C        0.65625        0.518519        0.4139955474452554        0        
C3        C        0.625        0.537037        0.4139955474452554        0        
C4        C        0.65625        0.481481        0.4139955474452554        0        
C1        C        0.625        0.574075        0.4139955474452554        0        
C2        C        0.65625        0.62963        0.4139955474452554        0        
C3        C        0.625        0.648148        0.4139955474452554        0        
C4        C        0.65625        0.592592        0.4139955474452554        0        
C1        C        0.6875        0.018519        0.4139955474452554        0        
C2        C        0.71875        0.074075        0.4139955474452554        0        
C3        C        0.6875        0.092592        0.4139955474452554        0        
C4        C        0.71875        0.037037        0.4139955474452554        0        
C1        C        0.6875        0.12963        0.4139955474452554        0        
C2        C        0.71875        0.185185        0.4139955474452554        0        
C3        C        0.6875        0.203703        0.4139955474452554        0        
C4        C        0.71875        0.148148        0.4139955474452554        0        
C1        C        0.6875        0.24074099999999998        0.4139955474452554        0        
C2        C        0.71875        0.296297        0.4139955474452554        0        
C3        C        0.6875        0.314815        0.4139955474452554        0        
C4        C        0.71875        0.259259        0.4139955474452554        0        
C1        C        0.6875        0.351852        0.4139955474452554        0        
C2        C        0.71875        0.407408        0.4139955474452554        0        
C3        C        0.6875        0.425925        0.4139955474452554        0        
C4        C        0.71875        0.37037        0.4139955474452554        0        
C1        C        0.6875        0.46296300000000007        0.4139955474452554        0        
C2        C        0.71875        0.518519        0.4139955474452554        0        
C3        C        0.6875        0.537037        0.4139955474452554        0        
C4        C        0.71875        0.481481        0.4139955474452554        0        
C1        C        0.6875        0.574075        0.4139955474452554        0        
C2        C        0.71875        0.62963        0.4139955474452554        0        
C3        C        0.6875        0.648148        0.4139955474452554        0        
C4        C        0.71875        0.592592        0.4139955474452554        0        
C1        C        0.75        0.018519        0.4139955474452554        0        
C2        C        0.78125        0.074075        0.4139955474452554        0        
C3        C        0.75        0.092592        0.4139955474452554        0        
C4        C        0.78125        0.037037        0.4139955474452554        0        
C1        C        0.75        0.12963        0.4139955474452554        0        
C2        C        0.78125        0.185185        0.4139955474452554        0        
C3        C        0.75        0.203703        0.4139955474452554        0        
C4        C        0.78125        0.148148        0.4139955474452554        0        
C1        C        0.75        0.24074099999999998        0.4139955474452554        0        
C2        C        0.78125        0.296297        0.4139955474452554        0        
C3        C        0.75        0.314815        0.4139955474452554        0        
C4        C        0.78125        0.259259        0.4139955474452554        0        
C1        C        0.75        0.351852        0.4139955474452554        0        
C2        C        0.78125        0.407408        0.4139955474452554        0        
C3        C        0.75        0.425925        0.4139955474452554        0        
C4        C        0.78125        0.37037        0.4139955474452554        0        
C1        C        0.75        0.46296300000000007        0.4139955474452554        0        
C2        C        0.78125        0.518519        0.4139955474452554        0        
C3        C        0.75        0.537037        0.4139955474452554        0        
C4        C        0.78125        0.481481        0.4139955474452554        0        
C1        C        0.75        0.574075        0.4139955474452554        0        
C2        C        0.78125        0.62963        0.4139955474452554        0        
C3        C        0.75        0.648148        0.4139955474452554        0        
C4        C        0.78125        0.592592        0.4139955474452554        0        
C1        C        0.8125        0.018519        0.4139955474452554        0        
C2        C        0.84375        0.074075        0.4139955474452554        0        
C3        C        0.8125        0.092592        0.4139955474452554        0        
C4        C        0.84375        0.037037        0.4139955474452554        0        
C1        C        0.8125        0.12963        0.4139955474452554        0        
C2        C        0.84375        0.185185        0.4139955474452554        0        
C3        C        0.8125        0.203703        0.4139955474452554        0        
C4        C        0.84375        0.148148        0.4139955474452554        0        
C1        C        0.8125        0.24074099999999998        0.4139955474452554        0        
C2        C        0.84375        0.296297        0.4139955474452554        0        
C3        C        0.8125        0.314815        0.4139955474452554        0        
C4        C        0.84375        0.259259        0.4139955474452554        0        
C1        C        0.8125        0.351852        0.4139955474452554        0        
C2        C        0.84375        0.407408        0.4139955474452554        0        
C3        C        0.8125        0.425925        0.4139955474452554        0        
C4        C        0.84375        0.37037        0.4139955474452554        0        
C1        C        0.8125        0.46296300000000007        0.4139955474452554        0        
C2        C        0.84375        0.518519        0.4139955474452554        0        
C3        C        0.8125        0.537037        0.4139955474452554        0        
C4        C        0.84375        0.481481        0.4139955474452554        0        
C1        C        0.8125        0.574075        0.4139955474452554        0        
C2        C        0.84375        0.62963        0.4139955474452554        0        
C3        C        0.8125        0.648148        0.4139955474452554        0        
C4        C        0.84375        0.592592        0.4139955474452554        0        
C1        C        0.875        0.018519        0.4139955474452554        0        
C2        C        0.9062500000000001        0.074075        0.4139955474452554        0        
C3        C        0.875        0.092592        0.4139955474452554        0        
C4        C        0.9062500000000001        0.037037        0.4139955474452554        0        
C1        C        0.875        0.12963        0.4139955474452554        0        
C2        C        0.9062500000000001        0.185185        0.4139955474452554        0        
C3        C        0.875        0.203703        0.4139955474452554        0        
C4        C        0.9062500000000001        0.148148        0.4139955474452554        0        
C1        C        0.875        0.24074099999999998        0.4139955474452554        0        
C2        C        0.9062500000000001        0.296297        0.4139955474452554        0        
C3        C        0.875        0.314815        0.4139955474452554        0        
C4        C        0.9062500000000001        0.259259        0.4139955474452554        0        
C1        C        0.875        0.351852        0.4139955474452554        0        
C2        C        0.9062500000000001        0.407408        0.4139955474452554        0        
C3        C        0.875        0.425925        0.4139955474452554        0        
C4        C        0.9062500000000001        0.37037        0.4139955474452554        0        
C1        C        0.875        0.46296300000000007        0.4139955474452554        0        
C2        C        0.9062500000000001        0.518519        0.4139955474452554        0        
C3        C        0.875        0.537037        0.4139955474452554        0        
C4        C        0.9062500000000001        0.481481        0.4139955474452554        0        
C1        C        0.875        0.574075        0.4139955474452554        0        
C2        C        0.9062500000000001        0.62963        0.4139955474452554        0        
C3        C        0.875        0.648148        0.4139955474452554        0        
C4        C        0.9062500000000001        0.592592        0.4139955474452554        0        
C1        C        0.9375        0.018519        0.4139955474452554        0        
C2        C        0.9687500000000001        0.074075        0.4139955474452554        0        
C3        C        0.9375        0.092592        0.4139955474452554        0        
C4        C        0.9687500000000001        0.037037        0.4139955474452554        0        
C1        C        0.9375        0.12963        0.4139955474452554        0        
C2        C        0.9687500000000001        0.185185        0.4139955474452554        0        
C3        C        0.9375        0.203703        0.4139955474452554        0        
C4        C        0.9687500000000001        0.148148        0.4139955474452554        0        
C1        C        0.9375        0.24074099999999998        0.4139955474452554        0        
C2        C        0.9687500000000001        0.296297        0.4139955474452554        0        
C3        C        0.9375        0.314815        0.4139955474452554        0        
C4        C        0.9687500000000001        0.259259        0.4139955474452554        0        
C1        C        0.9375        0.351852        0.4139955474452554        0        
C2        C        0.9687500000000001        0.407408        0.4139955474452554        0        
C3        C        0.9375        0.425925        0.4139955474452554        0        
C4        C        0.9687500000000001        0.37037        0.4139955474452554        0        
C1        C        0.9375        0.46296300000000007        0.4139955474452554        0        
C2        C        0.9687500000000001        0.518519        0.4139955474452554        0        
C3        C        0.9375        0.537037        0.4139955474452554        0        
C4        C        0.9687500000000001        0.481481        0.4139955474452554        0        
C1        C        0.9375        0.574075        0.4139955474452554        0        
C2        C        0.9687500000000001        0.62963        0.4139955474452554        0        
C3        C        0.9375        0.648148        0.4139955474452554        0        
C4        C        0.9687500000000001        0.592592        0.4139955474452554        0        
C1        C        0.0        0.685186        0.4139955474452554        0        
C1        C        0.0625        0.685186        0.4139955474452554        0        
C1        C        0.125        0.685186        0.4139955474452554        0        
C1        C        0.1875        0.685186        0.4139955474452554        0        
C1        C        0.25        0.685186        0.4139955474452554        0        
C1        C        0.3125        0.685186        0.4139955474452554        0        
C1        C        0.375        0.685186        0.4139955474452554        0        
C1        C        0.4375        0.685186        0.4139955474452554        0        
C1        C        0.5        0.685186        0.4139955474452554        0        
C1        C        0.5625        0.685186        0.4139955474452554        0        
C1        C        0.625        0.685186        0.4139955474452554        0        
C1        C        0.6875        0.685186        0.4139955474452554        0        
C1        C        0.75        0.685186        0.4139955474452554        0        
C1        C        0.8125        0.685186        0.4139955474452554        0        
C1        C        0.875        0.685186        0.4139955474452554        0        
C1        C        0.9375        0.685186        0.4139955474452554        0        
C2        C        0.03125        0.740741        0.4139955474452554        0        
C2        C        0.09375        0.740741        0.4139955474452554        0        
C2        C        0.15625        0.740741        0.4139955474452554        0        
C2        C        0.21875        0.740741        0.4139955474452554        0        
C2        C        0.28125        0.740741        0.4139955474452554        0        
C2        C        0.34375        0.740741        0.4139955474452554        0        
C2        C        0.40625        0.740741        0.4139955474452554        0        
C2        C        0.46875        0.740741        0.4139955474452554        0        
C2        C        0.53125        0.740741        0.4139955474452554        0        
C2        C        0.59375        0.740741        0.4139955474452554        0        
C2        C        0.65625        0.740741        0.4139955474452554        0        
C2        C        0.71875        0.740741        0.4139955474452554        0        
C2        C        0.78125        0.740741        0.4139955474452554        0        
C2        C        0.84375        0.740741        0.4139955474452554        0        
C2        C        0.9062500000000001        0.740741        0.4139955474452554        0        
C2        C        0.9687500000000001        0.740741        0.4139955474452554        0        
C3        C        0.0        0.759259        0.4139955474452554        0        
C3        C        0.0625        0.759259        0.4139955474452554        0        
C3        C        0.125        0.759259        0.4139955474452554        0        
C3        C        0.1875        0.759259        0.4139955474452554        0        
C3        C        0.25        0.759259        0.4139955474452554        0        
C3        C        0.3125        0.759259        0.4139955474452554        0        
C3        C        0.375        0.759259        0.4139955474452554        0        
C3        C        0.4375        0.759259        0.4139955474452554        0        
C3        C        0.5        0.759259        0.4139955474452554        0        
C3        C        0.5625        0.759259        0.4139955474452554        0        
C3        C        0.625        0.759259        0.4139955474452554        0        
C3        C        0.6875        0.759259        0.4139955474452554        0        
C3        C        0.75        0.759259        0.4139955474452554        0        
C3        C        0.8125        0.759259        0.4139955474452554        0        
C3        C        0.875        0.759259        0.4139955474452554        0        
C3        C        0.9375        0.759259        0.4139955474452554        0        
C4        C        0.03125        0.703703        0.4139955474452554        0        
C4        C        0.09375        0.703703        0.4139955474452554        0        
C4        C        0.15625        0.703703        0.4139955474452554        0        
C4        C        0.21875        0.703703        0.4139955474452554        0        
C4        C        0.28125        0.703703        0.4139955474452554        0        
C4        C        0.34375        0.703703        0.4139955474452554        0        
C4        C        0.40625        0.703703        0.4139955474452554        0        
C4        C        0.46875        0.703703        0.4139955474452554        0        
C4        C        0.53125        0.703703        0.4139955474452554        0        
C4        C        0.59375        0.703703        0.4139955474452554        0        
C4        C        0.65625        0.703703        0.4139955474452554        0        
C4        C        0.71875        0.703703        0.4139955474452554        0        
C4        C        0.78125        0.703703        0.4139955474452554        0        
C4        C        0.84375        0.703703        0.4139955474452554        0        
C4        C        0.9062500000000001        0.703703        0.4139955474452554        0        
C4        C        0.9687500000000001        0.703703        0.4139955474452554        0        
C1        C        0.0        0.796297        0.4139955474452554        0        
C1        C        0.0625        0.796297        0.4139955474452554        0        
C1        C        0.125        0.796297        0.4139955474452554        0        
C1        C        0.1875        0.796297        0.4139955474452554        0        
C1        C        0.25        0.796297        0.4139955474452554        0        
C1        C        0.3125        0.796297        0.4139955474452554        0        
C1        C        0.375        0.796297        0.4139955474452554        0        
C1        C        0.4375        0.796297        0.4139955474452554        0        
C1        C        0.5        0.796297        0.4139955474452554        0        
C1        C        0.5625        0.796297        0.4139955474452554        0        
C1        C        0.625        0.796297        0.4139955474452554        0        
C1        C        0.6875        0.796297        0.4139955474452554        0        
C1        C        0.75        0.796297        0.4139955474452554        0        
C1        C        0.8125        0.796297        0.4139955474452554        0        
C1        C        0.875        0.796297        0.4139955474452554        0        
C1        C        0.9375        0.796297        0.4139955474452554        0        
C2        C        0.03125        0.851852        0.4139955474452554        0        
C2        C        0.09375        0.851852        0.4139955474452554        0        
C2        C        0.15625        0.851852        0.4139955474452554        0        
C2        C        0.21875        0.851852        0.4139955474452554        0        
C2        C        0.28125        0.851852        0.4139955474452554        0        
C2        C        0.34375        0.851852        0.4139955474452554        0        
C2        C        0.40625        0.851852        0.4139955474452554        0        
C2        C        0.46875        0.851852        0.4139955474452554        0        
C2        C        0.53125        0.851852        0.4139955474452554        0        
C2        C        0.59375        0.851852        0.4139955474452554        0        
C2        C        0.65625        0.851852        0.4139955474452554        0        
C2        C        0.71875        0.851852        0.4139955474452554        0        
C2        C        0.78125        0.851852        0.4139955474452554        0        
C2        C        0.84375        0.851852        0.4139955474452554        0        
C2        C        0.9062500000000001        0.851852        0.4139955474452554        0        
C2        C        0.9687500000000001        0.851852        0.4139955474452554        0        
C3        C        0.0        0.87037        0.4139955474452554        0        
C3        C        0.0625        0.87037        0.4139955474452554        0        
C3        C        0.125        0.87037        0.4139955474452554        0        
C3        C        0.1875        0.87037        0.4139955474452554        0        
C3        C        0.25        0.87037        0.4139955474452554        0        
C3        C        0.3125        0.87037        0.4139955474452554        0        
C3        C        0.375        0.87037        0.4139955474452554        0        
C3        C        0.4375        0.87037        0.4139955474452554        0        
C3        C        0.5        0.87037        0.4139955474452554        0        
C3        C        0.5625        0.87037        0.4139955474452554        0        
C3        C        0.625        0.87037        0.4139955474452554        0        
C3        C        0.6875        0.87037        0.4139955474452554        0        
C3        C        0.75        0.87037        0.4139955474452554        0        
C3        C        0.8125        0.87037        0.4139955474452554        0        
C3        C        0.875        0.87037        0.4139955474452554        0        
C3        C        0.9375        0.87037        0.4139955474452554        0        
C4        C        0.03125        0.814814        0.4139955474452554        0        
C4        C        0.09375        0.814814        0.4139955474452554        0        
C4        C        0.15625        0.814814        0.4139955474452554        0        
C4        C        0.21875        0.814814        0.4139955474452554        0        
C4        C        0.28125        0.814814        0.4139955474452554        0        
C4        C        0.34375        0.814814        0.4139955474452554        0        
C4        C        0.40625        0.814814        0.4139955474452554        0        
C4        C        0.46875        0.814814        0.4139955474452554        0        
C4        C        0.53125        0.814814        0.4139955474452554        0        
C4        C        0.59375        0.814814        0.4139955474452554        0        
C4        C        0.65625        0.814814        0.4139955474452554        0        
C4        C        0.71875        0.814814        0.4139955474452554        0        
C4        C        0.78125        0.814814        0.4139955474452554        0        
C4        C        0.84375        0.814814        0.4139955474452554        0        
C4        C        0.9062500000000001        0.814814        0.4139955474452554        0        
C4        C        0.9687500000000001        0.814814        0.4139955474452554        0        
C1        C        0.0        0.907408        0.4139955474452554        0        
C1        C        0.0625        0.907408        0.4139955474452554        0        
C1        C        0.125        0.907408        0.4139955474452554        0        
C1        C        0.1875        0.907408        0.4139955474452554        0        
C1        C        0.25        0.907408        0.4139955474452554        0        
C1        C        0.3125        0.907408        0.4139955474452554        0        
C1        C        0.375        0.907408        0.4139955474452554        0        
C1        C        0.4375        0.907408        0.4139955474452554        0        
C1        C        0.5        0.907408        0.4139955474452554        0        
C1        C        0.5625        0.907408        0.4139955474452554        0        
C1        C        0.625        0.907408        0.4139955474452554        0        
C1        C        0.6875        0.907408        0.4139955474452554        0        
C1        C        0.75        0.907408        0.4139955474452554        0        
C1        C        0.8125        0.907408        0.4139955474452554        0        
C1        C        0.875        0.907408        0.4139955474452554        0        
C1        C        0.9375        0.907408        0.4139955474452554        0        
C2        C        0.03125        0.962963        0.4139955474452554        0        
C2        C        0.09375        0.962963        0.4139955474452554        0        
C2        C        0.15625        0.962963        0.4139955474452554        0        
C2        C        0.21875        0.962963        0.4139955474452554        0        
C2        C        0.28125        0.962963        0.4139955474452554        0        
C2        C        0.34375        0.962963        0.4139955474452554        0        
C2        C        0.40625        0.962963        0.4139955474452554        0        
C2        C        0.46875        0.962963        0.4139955474452554        0        
C2        C        0.53125        0.962963        0.4139955474452554        0        
C2        C        0.59375        0.962963        0.4139955474452554        0        
C2        C        0.65625        0.962963        0.4139955474452554        0        
C2        C        0.71875        0.962963        0.4139955474452554        0        
C2        C        0.78125        0.962963        0.4139955474452554        0        
C2        C        0.84375        0.962963        0.4139955474452554        0        
C2        C        0.9062500000000001        0.962963        0.4139955474452554        0        
C2        C        0.9687500000000001        0.962963        0.4139955474452554        0        
C3        C        0.0        0.9814809999999999        0.4139955474452554        0        
C3        C        0.0625        0.9814809999999999        0.4139955474452554        0        
C3        C        0.125        0.9814809999999999        0.4139955474452554        0        
C3        C        0.1875        0.9814809999999999        0.4139955474452554        0        
C3        C        0.25        0.9814809999999999        0.4139955474452554        0        
C3        C        0.3125        0.9814809999999999        0.4139955474452554        0        
C3        C        0.375        0.9814809999999999        0.4139955474452554        0        
C3        C        0.4375        0.9814809999999999        0.4139955474452554        0        
C3        C        0.5        0.9814809999999999        0.4139955474452554        0        
C3        C        0.5625        0.9814809999999999        0.4139955474452554        0        
C3        C        0.625        0.9814809999999999        0.4139955474452554        0        
C3        C        0.6875        0.9814809999999999        0.4139955474452554        0        
C3        C        0.75        0.9814809999999999        0.4139955474452554        0        
C3        C        0.8125        0.9814809999999999        0.4139955474452554        0        
C3        C        0.875        0.9814809999999999        0.4139955474452554        0        
C3        C        0.9375        0.9814809999999999        0.4139955474452554        0        
C4        C        0.03125        0.925925        0.4139955474452554        0        
C4        C        0.09375        0.925925        0.4139955474452554        0        
C4        C        0.15625        0.925925        0.4139955474452554        0        
C4        C        0.21875        0.925925        0.4139955474452554        0        
C4        C        0.28125        0.925925        0.4139955474452554        0        
C4        C        0.34375        0.925925        0.4139955474452554        0        
C4        C        0.40625        0.925925        0.4139955474452554        0        
C4        C        0.46875        0.925925        0.4139955474452554        0        
C4        C        0.53125        0.925925        0.4139955474452554        0        
C4        C        0.59375        0.925925        0.4139955474452554        0        
C4        C        0.65625        0.925925        0.4139955474452554        0        
C4        C        0.71875        0.925925        0.4139955474452554        0        
C4        C        0.78125        0.925925        0.4139955474452554        0        
C4        C        0.84375        0.925925        0.4139955474452554        0        
C4        C        0.9062500000000001        0.925925        0.4139955474452554        0        
C4        C        0.9687500000000001        0.925925        0.4139955474452554        0        
C1        C        0.0        0.018519        0.658521094890511        0        
C2        C        0.03125        0.074075        0.658521094890511        0        
C3        C        0.0        0.092592        0.658521094890511        0        
C4        C        0.03125        0.037037        0.658521094890511        0        
C1        C        0.0        0.12963        0.658521094890511        0        
C2        C        0.03125        0.185185        0.658521094890511        0        
C3        C        0.0        0.203703        0.658521094890511        0        
C4        C        0.03125        0.148148        0.658521094890511        0        
C1        C        0.0        0.24074099999999998        0.658521094890511        0        
C2        C        0.03125        0.296297        0.658521094890511        0        
C3        C        0.0        0.314815        0.658521094890511        0        
C4        C        0.03125        0.259259        0.658521094890511        0        
C1        C        0.0        0.351852        0.658521094890511        0        
C2        C        0.03125        0.407408        0.658521094890511        0        
C3        C        0.0        0.425925        0.658521094890511        0        
C4        C        0.03125        0.37037        0.658521094890511        0        
C1        C        0.0        0.46296300000000007        0.658521094890511        0        
C2        C        0.03125        0.518519        0.658521094890511        0        
C3        C        0.0        0.537037        0.658521094890511        0        
C4        C        0.03125        0.481481        0.658521094890511        0        
C1        C        0.0        0.574075        0.658521094890511        0        
C2        C        0.03125        0.62963        0.658521094890511        0        
C3        C        0.0        0.648148        0.658521094890511        0        
C4        C        0.03125        0.592592        0.658521094890511        0        
C1        C        0.0625        0.018519        0.658521094890511        0        
C2        C        0.09375        0.074075        0.658521094890511        0        
C3        C        0.0625        0.092592        0.658521094890511        0        
C4        C        0.09375        0.037037        0.658521094890511        0        
C1        C        0.0625        0.12963        0.658521094890511        0        
C2        C        0.09375        0.185185        0.658521094890511        0        
C3        C        0.0625        0.203703        0.658521094890511        0        
C4        C        0.09375        0.148148        0.658521094890511        0        
C1        C        0.0625        0.24074099999999998        0.658521094890511        0        
C2        C        0.09375        0.296297        0.658521094890511        0        
C3        C        0.0625        0.314815        0.658521094890511        0        
C4        C        0.09375        0.259259        0.658521094890511        0        
C1        C        0.0625        0.351852        0.658521094890511        0        
C2        C        0.09375        0.407408        0.658521094890511        0        
C3        C        0.0625        0.425925        0.658521094890511        0        
C4        C        0.09375        0.37037        0.658521094890511        0        
C1        C        0.0625        0.46296300000000007        0.658521094890511        0        
C2        C        0.09375        0.518519        0.658521094890511        0        
C3        C        0.0625        0.537037        0.658521094890511        0        
C4        C        0.09375        0.481481        0.658521094890511        0        
C1        C        0.0625        0.574075        0.658521094890511        0        
C2        C        0.09375        0.62963        0.658521094890511        0        
C3        C        0.0625        0.648148        0.658521094890511        0        
C4        C        0.09375        0.592592        0.658521094890511        0        
C1        C        0.125        0.018519        0.658521094890511        0        
C2        C        0.15625        0.074075        0.658521094890511        0        
C3        C        0.125        0.092592        0.658521094890511        0        
C4        C        0.15625        0.037037        0.658521094890511        0        
C1        C        0.125        0.12963        0.658521094890511        0        
C2        C        0.15625        0.185185        0.658521094890511        0        
C3        C        0.125        0.203703        0.658521094890511        0        
C4        C        0.15625        0.148148        0.658521094890511        0        
C1        C        0.125        0.24074099999999998        0.658521094890511        0        
C2        C        0.15625        0.296297        0.658521094890511        0        
C3        C        0.125        0.314815        0.658521094890511        0        
C4        C        0.15625        0.259259        0.658521094890511        0        
C1        C        0.125        0.351852        0.658521094890511        0        
C2        C        0.15625        0.407408        0.658521094890511        0        
C3        C        0.125        0.425925        0.658521094890511        0        
C4        C        0.15625        0.37037        0.658521094890511        0        
C1        C        0.125        0.46296300000000007        0.658521094890511        0        
C2        C        0.15625        0.518519        0.658521094890511        0        
C3        C        0.125        0.537037        0.658521094890511        0        
C4        C        0.15625        0.481481        0.658521094890511        0        
C1        C        0.125        0.574075        0.658521094890511        0        
C2        C        0.15625        0.62963        0.658521094890511        0        
C3        C        0.125        0.648148        0.658521094890511        0        
C4        C        0.15625        0.592592        0.658521094890511        0        
C1        C        0.1875        0.018519        0.658521094890511        0        
C2        C        0.21875        0.074075        0.658521094890511        0        
C3        C        0.1875        0.092592        0.658521094890511        0        
C4        C        0.21875        0.037037        0.658521094890511        0        
C1        C        0.1875        0.12963        0.658521094890511        0        
C2        C        0.21875        0.185185        0.658521094890511        0        
C3        C        0.1875        0.203703        0.658521094890511        0        
C4        C        0.21875        0.148148        0.658521094890511        0        
C1        C        0.1875        0.24074099999999998        0.658521094890511        0        
C2        C        0.21875        0.296297        0.658521094890511        0        
C3        C        0.1875        0.314815        0.658521094890511        0        
C4        C        0.21875        0.259259        0.658521094890511        0        
C1        C        0.1875        0.351852        0.658521094890511        0        
C2        C        0.21875        0.407408        0.658521094890511        0        
C3        C        0.1875        0.425925        0.658521094890511        0        
C4        C        0.21875        0.37037        0.658521094890511        0        
C1        C        0.1875        0.46296300000000007        0.658521094890511        0        
C2        C        0.21875        0.518519        0.658521094890511        0        
C3        C        0.1875        0.537037        0.658521094890511        0        
C4        C        0.21875        0.481481        0.658521094890511        0        
C1        C        0.1875        0.574075        0.658521094890511        0        
C2        C        0.21875        0.62963        0.658521094890511        0        
C3        C        0.1875        0.648148        0.658521094890511        0        
C4        C        0.21875        0.592592        0.658521094890511        0        
C1        C        0.25        0.018519        0.658521094890511        0        
C2        C        0.28125        0.074075        0.658521094890511        0        
C3        C        0.25        0.092592        0.658521094890511        0        
C4        C        0.28125        0.037037        0.658521094890511        0        
C1        C        0.25        0.12963        0.658521094890511        0        
C2        C        0.28125        0.185185        0.658521094890511        0        
C3        C        0.25        0.203703        0.658521094890511        0        
C4        C        0.28125        0.148148        0.658521094890511        0        
C1        C        0.25        0.24074099999999998        0.658521094890511        0        
C2        C        0.28125        0.296297        0.658521094890511        0        
C3        C        0.25        0.314815        0.658521094890511        0        
C4        C        0.28125        0.259259        0.658521094890511        0        
C1        C        0.25        0.351852        0.658521094890511        0        
C2        C        0.28125        0.407408        0.658521094890511        0        
C3        C        0.25        0.425925        0.658521094890511        0        
C4        C        0.28125        0.37037        0.658521094890511        0        
C1        C        0.25        0.46296300000000007        0.658521094890511        0        
C2        C        0.28125        0.518519        0.658521094890511        0        
C3        C        0.25        0.537037        0.658521094890511        0        
C4        C        0.28125        0.481481        0.658521094890511        0        
C1        C        0.25        0.574075        0.658521094890511        0        
C2        C        0.28125        0.62963        0.658521094890511        0        
C3        C        0.25        0.648148        0.658521094890511        0        
C4        C        0.28125        0.592592        0.658521094890511        0        
C1        C        0.3125        0.018519        0.658521094890511        0        
C2        C        0.34375        0.074075        0.658521094890511        0        
C3        C        0.3125        0.092592        0.658521094890511        0        
C4        C        0.34375        0.037037        0.658521094890511        0        
C1        C        0.3125        0.12963        0.658521094890511        0        
C2        C        0.34375        0.185185        0.658521094890511        0        
C3        C        0.3125        0.203703        0.658521094890511        0        
C4        C        0.34375        0.148148        0.658521094890511        0        
C1        C        0.3125        0.24074099999999998        0.658521094890511        0        
C2        C        0.34375        0.296297        0.658521094890511        0        
C3        C        0.3125        0.314815        0.658521094890511        0        
C4        C        0.34375        0.259259        0.658521094890511        0        
C1        C        0.3125        0.351852        0.658521094890511        0        
C2        C        0.34375        0.407408        0.658521094890511        0        
C3        C        0.3125        0.425925        0.658521094890511        0        
C4        C        0.34375        0.37037        0.658521094890511        0        
C1        C        0.3125        0.46296300000000007        0.658521094890511        0        
C2        C        0.34375        0.518519        0.658521094890511        0        
C3        C        0.3125        0.537037        0.658521094890511        0        
C4        C        0.34375        0.481481        0.658521094890511        0        
C1        C        0.3125        0.574075        0.658521094890511        0        
C2        C        0.34375        0.62963        0.658521094890511        0        
C3        C        0.3125        0.648148        0.658521094890511        0        
C4        C        0.34375        0.592592        0.658521094890511        0        
C1        C        0.375        0.018519        0.658521094890511        0        
C2        C        0.40625        0.074075        0.658521094890511        0        
C3        C        0.375        0.092592        0.658521094890511        0        
C4        C        0.40625        0.037037        0.658521094890511        0        
C1        C        0.375        0.12963        0.658521094890511        0        
C2        C        0.40625        0.185185        0.658521094890511        0        
C3        C        0.375        0.203703        0.658521094890511        0        
C4        C        0.40625        0.148148        0.658521094890511        0        
C1        C        0.375        0.24074099999999998        0.658521094890511        0        
C2        C        0.40625        0.296297        0.658521094890511        0        
C3        C        0.375        0.314815        0.658521094890511        0        
C4        C        0.40625        0.259259        0.658521094890511        0        
C1        C        0.375        0.351852        0.658521094890511        0        
C2        C        0.40625        0.407408        0.658521094890511        0        
C3        C        0.375        0.425925        0.658521094890511        0        
C4        C        0.40625        0.37037        0.658521094890511        0        
C1        C        0.375        0.46296300000000007        0.658521094890511        0        
C2        C        0.40625        0.518519        0.658521094890511        0        
C3        C        0.375        0.537037        0.658521094890511        0        
C4        C        0.40625        0.481481        0.658521094890511        0        
C1        C        0.375        0.574075        0.658521094890511        0        
C2        C        0.40625        0.62963        0.658521094890511        0        
C3        C        0.375        0.648148        0.658521094890511        0        
C4        C        0.40625        0.592592        0.658521094890511        0        
C1        C        0.4375        0.018519        0.658521094890511        0        
C2        C        0.46875        0.074075        0.658521094890511        0        
C3        C        0.4375        0.092592        0.658521094890511        0        
C4        C        0.46875        0.037037        0.658521094890511        0        
C1        C        0.4375        0.12963        0.658521094890511        0        
C2        C        0.46875        0.185185        0.658521094890511        0        
C3        C        0.4375        0.203703        0.658521094890511        0        
C4        C        0.46875        0.148148        0.658521094890511        0        
C1        C        0.4375        0.24074099999999998        0.658521094890511        0        
C2        C        0.46875        0.296297        0.658521094890511        0        
C3        C        0.4375        0.314815        0.658521094890511        0        
C4        C        0.46875        0.259259        0.658521094890511        0        
C1        C        0.4375        0.351852        0.658521094890511        0        
C2        C        0.46875        0.407408        0.658521094890511        0        
C3        C        0.4375        0.425925        0.658521094890511        0        
C4        C        0.46875        0.37037        0.658521094890511        0        
C1        C        0.4375        0.46296300000000007        0.658521094890511        0        
C2        C        0.46875        0.518519        0.658521094890511        0        
C3        C        0.4375        0.537037        0.658521094890511        0        
C4        C        0.46875        0.481481        0.658521094890511        0        
C1        C        0.4375        0.574075        0.658521094890511        0        
C2        C        0.46875        0.62963        0.658521094890511        0        
C3        C        0.4375        0.648148        0.658521094890511        0        
C4        C        0.46875        0.592592        0.658521094890511        0        
C1        C        0.5        0.018519        0.658521094890511        0        
C2        C        0.53125        0.074075        0.658521094890511        0        
C3        C        0.5        0.092592        0.658521094890511        0        
C4        C        0.53125        0.037037        0.658521094890511        0        
C1        C        0.5        0.12963        0.658521094890511        0        
C2        C        0.53125        0.185185        0.658521094890511        0        
C3        C        0.5        0.203703        0.658521094890511        0        
C4        C        0.53125        0.148148        0.658521094890511        0        
C1        C        0.5        0.24074099999999998        0.658521094890511        0        
C2        C        0.53125        0.296297        0.658521094890511        0        
C3        C        0.5        0.314815        0.658521094890511        0        
C4        C        0.53125        0.259259        0.658521094890511        0        
C1        C        0.5        0.351852        0.658521094890511        0        
C2        C        0.53125        0.407408        0.658521094890511        0        
C3        C        0.5        0.425925        0.658521094890511        0        
C4        C        0.53125        0.37037        0.658521094890511        0        
C1        C        0.5        0.46296300000000007        0.658521094890511        0        
C2        C        0.53125        0.518519        0.658521094890511        0        
C3        C        0.5        0.537037        0.658521094890511        0        
C4        C        0.53125        0.481481        0.658521094890511        0        
C1        C        0.5        0.574075        0.658521094890511        0        
C2        C        0.53125        0.62963        0.658521094890511        0        
C3        C        0.5        0.648148        0.658521094890511        0        
C4        C        0.53125        0.592592        0.658521094890511        0        
C1        C        0.5625        0.018519        0.658521094890511        0        
C2        C        0.59375        0.074075        0.658521094890511        0        
C3        C        0.5625        0.092592        0.658521094890511        0        
C4        C        0.59375        0.037037        0.658521094890511        0        
C1        C        0.5625        0.12963        0.658521094890511        0        
C2        C        0.59375        0.185185        0.658521094890511        0        
C3        C        0.5625        0.203703        0.658521094890511        0        
C4        C        0.59375        0.148148        0.658521094890511        0        
C1        C        0.5625        0.24074099999999998        0.658521094890511        0        
C2        C        0.59375        0.296297        0.658521094890511        0        
C3        C        0.5625        0.314815        0.658521094890511        0        
C4        C        0.59375        0.259259        0.658521094890511        0        
C1        C        0.5625        0.351852        0.658521094890511        0        
C2        C        0.59375        0.407408        0.658521094890511        0        
C3        C        0.5625        0.425925        0.658521094890511        0        
C4        C        0.59375        0.37037        0.658521094890511        0        
C1        C        0.5625        0.46296300000000007        0.658521094890511        0        
C2        C        0.59375        0.518519        0.658521094890511        0        
C3        C        0.5625        0.537037        0.658521094890511        0        
C4        C        0.59375        0.481481        0.658521094890511        0        
C1        C        0.5625        0.574075        0.658521094890511        0        
C2        C        0.59375        0.62963        0.658521094890511        0        
C3        C        0.5625        0.648148        0.658521094890511        0        
C4        C        0.59375        0.592592        0.658521094890511        0        
C1        C        0.625        0.018519        0.658521094890511        0        
C2        C        0.65625        0.074075        0.658521094890511        0        
C3        C        0.625        0.092592        0.658521094890511        0        
C4        C        0.65625        0.037037        0.658521094890511        0        
C1        C        0.625        0.12963        0.658521094890511        0        
C2        C        0.65625        0.185185        0.658521094890511        0        
C3        C        0.625        0.203703        0.658521094890511        0        
C4        C        0.65625        0.148148        0.658521094890511        0        
C1        C        0.625        0.24074099999999998        0.658521094890511        0        
C2        C        0.65625        0.296297        0.658521094890511        0        
C3        C        0.625        0.314815        0.658521094890511        0        
C4        C        0.65625        0.259259        0.658521094890511        0        
C1        C        0.625        0.351852        0.658521094890511        0        
C2        C        0.65625        0.407408        0.658521094890511        0        
C3        C        0.625        0.425925        0.658521094890511        0        
C4        C        0.65625        0.37037        0.658521094890511        0        
C1        C        0.625        0.46296300000000007        0.658521094890511        0        
C2        C        0.65625        0.518519        0.658521094890511        0        
C3        C        0.625        0.537037        0.658521094890511        0        
C4        C        0.65625        0.481481        0.658521094890511        0        
C1        C        0.625        0.574075        0.658521094890511        0        
C2        C        0.65625        0.62963        0.658521094890511        0        
C3        C        0.625        0.648148        0.658521094890511        0        
C4        C        0.65625        0.592592        0.658521094890511        0        
C1        C        0.6875        0.018519        0.658521094890511        0        
C2        C        0.71875        0.074075        0.658521094890511        0        
C3        C        0.6875        0.092592        0.658521094890511        0        
C4        C        0.71875        0.037037        0.658521094890511        0        
C1        C        0.6875        0.12963        0.658521094890511        0        
C2        C        0.71875        0.185185        0.658521094890511        0        
C3        C        0.6875        0.203703        0.658521094890511        0        
C4        C        0.71875        0.148148        0.658521094890511        0        
C1        C        0.6875        0.24074099999999998        0.658521094890511        0        
C2        C        0.71875        0.296297        0.658521094890511        0        
C3        C        0.6875        0.314815        0.658521094890511        0        
C4        C        0.71875        0.259259        0.658521094890511        0        
C1        C        0.6875        0.351852        0.658521094890511        0        
C2        C        0.71875        0.407408        0.658521094890511        0        
C3        C        0.6875        0.425925        0.658521094890511        0        
C4        C        0.71875        0.37037        0.658521094890511        0        
C1        C        0.6875        0.46296300000000007        0.658521094890511        0        
C2        C        0.71875        0.518519        0.658521094890511        0        
C3        C        0.6875        0.537037        0.658521094890511        0        
C4        C        0.71875        0.481481        0.658521094890511        0        
C1        C        0.6875        0.574075        0.658521094890511        0        
C2        C        0.71875        0.62963        0.658521094890511        0        
C3        C        0.6875        0.648148        0.658521094890511        0        
C4        C        0.71875        0.592592        0.658521094890511        0        
C1        C        0.75        0.018519        0.658521094890511        0        
C2        C        0.78125        0.074075        0.658521094890511        0        
C3        C        0.75        0.092592        0.658521094890511        0        
C4        C        0.78125        0.037037        0.658521094890511        0        
C1        C        0.75        0.12963        0.658521094890511        0        
C2        C        0.78125        0.185185        0.658521094890511        0        
C3        C        0.75        0.203703        0.658521094890511        0        
C4        C        0.78125        0.148148        0.658521094890511        0        
C1        C        0.75        0.24074099999999998        0.658521094890511        0        
C2        C        0.78125        0.296297        0.658521094890511        0        
C3        C        0.75        0.314815        0.658521094890511        0        
C4        C        0.78125        0.259259        0.658521094890511        0        
C1        C        0.75        0.351852        0.658521094890511        0        
C2        C        0.78125        0.407408        0.658521094890511        0        
C3        C        0.75        0.425925        0.658521094890511        0        
C4        C        0.78125        0.37037        0.658521094890511        0        
C1        C        0.75        0.46296300000000007        0.658521094890511        0        
C2        C        0.78125        0.518519        0.658521094890511        0        
C3        C        0.75        0.537037        0.658521094890511        0        
C4        C        0.78125        0.481481        0.658521094890511        0        
C1        C        0.75        0.574075        0.658521094890511        0        
C2        C        0.78125        0.62963        0.658521094890511        0        
C3        C        0.75        0.648148        0.658521094890511        0        
C4        C        0.78125        0.592592        0.658521094890511        0        
C1        C        0.8125        0.018519        0.658521094890511        0        
C2        C        0.84375        0.074075        0.658521094890511        0        
C3        C        0.8125        0.092592        0.658521094890511        0        
C4        C        0.84375        0.037037        0.658521094890511        0        
C1        C        0.8125        0.12963        0.658521094890511        0        
C2        C        0.84375        0.185185        0.658521094890511        0        
C3        C        0.8125        0.203703        0.658521094890511        0        
C4        C        0.84375        0.148148        0.658521094890511        0        
C1        C        0.8125        0.24074099999999998        0.658521094890511        0        
C2        C        0.84375        0.296297        0.658521094890511        0        
C3        C        0.8125        0.314815        0.658521094890511        0        
C4        C        0.84375        0.259259        0.658521094890511        0        
C1        C        0.8125        0.351852        0.658521094890511        0        
C2        C        0.84375        0.407408        0.658521094890511        0        
C3        C        0.8125        0.425925        0.658521094890511        0        
C4        C        0.84375        0.37037        0.658521094890511        0        
C1        C        0.8125        0.46296300000000007        0.658521094890511        0        
C2        C        0.84375        0.518519        0.658521094890511        0        
C3        C        0.8125        0.537037        0.658521094890511        0        
C4        C        0.84375        0.481481        0.658521094890511        0        
C1        C        0.8125        0.574075        0.658521094890511        0        
C2        C        0.84375        0.62963        0.658521094890511        0        
C3        C        0.8125        0.648148        0.658521094890511        0        
C4        C        0.84375        0.592592        0.658521094890511        0        
C1        C        0.875        0.018519        0.658521094890511        0        
C2        C        0.9062500000000001        0.074075        0.658521094890511        0        
C3        C        0.875        0.092592        0.658521094890511        0        
C4        C        0.9062500000000001        0.037037        0.658521094890511        0        
C1        C        0.875        0.12963        0.658521094890511        0        
C2        C        0.9062500000000001        0.185185        0.658521094890511        0        
C3        C        0.875        0.203703        0.658521094890511        0        
C4        C        0.9062500000000001        0.148148        0.658521094890511        0        
C1        C        0.875        0.24074099999999998        0.658521094890511        0        
C2        C        0.9062500000000001        0.296297        0.658521094890511        0        
C3        C        0.875        0.314815        0.658521094890511        0        
C4        C        0.9062500000000001        0.259259        0.658521094890511        0        
C1        C        0.875        0.351852        0.658521094890511        0        
C2        C        0.9062500000000001        0.407408        0.658521094890511        0        
C3        C        0.875        0.425925        0.658521094890511        0        
C4        C        0.9062500000000001        0.37037        0.658521094890511        0        
C1        C        0.875        0.46296300000000007        0.658521094890511        0        
C2        C        0.9062500000000001        0.518519        0.658521094890511        0        
C3        C        0.875        0.537037        0.658521094890511        0        
C4        C        0.9062500000000001        0.481481        0.658521094890511        0        
C1        C        0.875        0.574075        0.658521094890511        0        
C2        C        0.9062500000000001        0.62963        0.658521094890511        0        
C3        C        0.875        0.648148        0.658521094890511        0        
C4        C        0.9062500000000001        0.592592        0.658521094890511        0        
C1        C        0.9375        0.018519        0.658521094890511        0        
C2        C        0.9687500000000001        0.074075        0.658521094890511        0        
C3        C        0.9375        0.092592        0.658521094890511        0        
C4        C        0.9687500000000001        0.037037        0.658521094890511        0        
C1        C        0.9375        0.12963        0.658521094890511        0        
C2        C        0.9687500000000001        0.185185        0.658521094890511        0        
C3        C        0.9375        0.203703        0.658521094890511        0        
C4        C        0.9687500000000001        0.148148        0.658521094890511        0        
C1        C        0.9375        0.24074099999999998        0.658521094890511        0        
C2        C        0.9687500000000001        0.296297        0.658521094890511        0        
C3        C        0.9375        0.314815        0.658521094890511        0        
C4        C        0.9687500000000001        0.259259        0.658521094890511        0        
C1        C        0.9375        0.351852        0.658521094890511        0        
C2        C        0.9687500000000001        0.407408        0.658521094890511        0        
C3        C        0.9375        0.425925        0.658521094890511        0        
C4        C        0.9687500000000001        0.37037        0.658521094890511        0        
C1        C        0.9375        0.46296300000000007        0.658521094890511        0        
C2        C        0.9687500000000001        0.518519        0.658521094890511        0        
C3        C        0.9375        0.537037        0.658521094890511        0        
C4        C        0.9687500000000001        0.481481        0.658521094890511        0        
C1        C        0.9375        0.574075        0.658521094890511        0        
C2        C        0.9687500000000001        0.62963        0.658521094890511        0        
C3        C        0.9375        0.648148        0.658521094890511        0        
C4        C        0.9687500000000001        0.592592        0.658521094890511        0        
C1        C        0.0        0.685186        0.658521094890511        0        
C1        C        0.0625        0.685186        0.658521094890511        0        
C1        C        0.125        0.685186        0.658521094890511        0        
C1        C        0.1875        0.685186        0.658521094890511        0        
C1        C        0.25        0.685186        0.658521094890511        0        
C1        C        0.3125        0.685186        0.658521094890511        0        
C1        C        0.375        0.685186        0.658521094890511        0        
C1        C        0.4375        0.685186        0.658521094890511        0        
C1        C        0.5        0.685186        0.658521094890511        0        
C1        C        0.5625        0.685186        0.658521094890511        0        
C1        C        0.625        0.685186        0.658521094890511        0        
C1        C        0.6875        0.685186        0.658521094890511        0        
C1        C        0.75        0.685186        0.658521094890511        0        
C1        C        0.8125        0.685186        0.658521094890511        0        
C1        C        0.875        0.685186        0.658521094890511        0        
C1        C        0.9375        0.685186        0.658521094890511        0        
C2        C        0.03125        0.740741        0.658521094890511        0        
C2        C        0.09375        0.740741        0.658521094890511        0        
C2        C        0.15625        0.740741        0.658521094890511        0        
C2        C        0.21875        0.740741        0.658521094890511        0        
C2        C        0.28125        0.740741        0.658521094890511        0        
C2        C        0.34375        0.740741        0.658521094890511        0        
C2        C        0.40625        0.740741        0.658521094890511        0        
C2        C        0.46875        0.740741        0.658521094890511        0        
C2        C        0.53125        0.740741        0.658521094890511        0        
C2        C        0.59375        0.740741        0.658521094890511        0        
C2        C        0.65625        0.740741        0.658521094890511        0        
C2        C        0.71875        0.740741        0.658521094890511        0        
C2        C        0.78125        0.740741        0.658521094890511        0        
C2        C        0.84375        0.740741        0.658521094890511        0        
C2        C        0.9062500000000001        0.740741        0.658521094890511        0        
C2        C        0.9687500000000001        0.740741        0.658521094890511        0        
C3        C        0.0        0.759259        0.658521094890511        0        
C3        C        0.0625        0.759259        0.658521094890511        0        
C3        C        0.125        0.759259        0.658521094890511        0        
C3        C        0.1875        0.759259        0.658521094890511        0        
C3        C        0.25        0.759259        0.658521094890511        0        
C3        C        0.3125        0.759259        0.658521094890511        0        
C3        C        0.375        0.759259        0.658521094890511        0        
C3        C        0.4375        0.759259        0.658521094890511        0        
C3        C        0.5        0.759259        0.658521094890511        0        
C3        C        0.5625        0.759259        0.658521094890511        0        
C3        C        0.625        0.759259        0.658521094890511        0        
C3        C        0.6875        0.759259        0.658521094890511        0        
C3        C        0.75        0.759259        0.658521094890511        0        
C3        C        0.8125        0.759259        0.658521094890511        0        
C3        C        0.875        0.759259        0.658521094890511        0        
C3        C        0.9375        0.759259        0.658521094890511        0        
C4        C        0.03125        0.703703        0.658521094890511        0        
C4        C        0.09375        0.703703        0.658521094890511        0        
C4        C        0.15625        0.703703        0.658521094890511        0        
C4        C        0.21875        0.703703        0.658521094890511        0        
C4        C        0.28125        0.703703        0.658521094890511        0        
C4        C        0.34375        0.703703        0.658521094890511        0        
C4        C        0.40625        0.703703        0.658521094890511        0        
C4        C        0.46875        0.703703        0.658521094890511        0        
C4        C        0.53125        0.703703        0.658521094890511        0        
C4        C        0.59375        0.703703        0.658521094890511        0        
C4        C        0.65625        0.703703        0.658521094890511        0        
C4        C        0.71875        0.703703        0.658521094890511        0        
C4        C        0.78125        0.703703        0.658521094890511        0        
C4        C        0.84375        0.703703        0.658521094890511        0        
C4        C        0.9062500000000001        0.703703        0.658521094890511        0        
C4        C        0.9687500000000001        0.703703        0.658521094890511        0        
C1        C        0.0        0.796297        0.658521094890511        0        
C1        C        0.0625        0.796297        0.658521094890511        0        
C1        C        0.125        0.796297        0.658521094890511        0        
C1        C        0.1875        0.796297        0.658521094890511        0        
C1        C        0.25        0.796297        0.658521094890511        0        
C1        C        0.3125        0.796297        0.658521094890511        0        
C1        C        0.375        0.796297        0.658521094890511        0        
C1        C        0.4375        0.796297        0.658521094890511        0        
C1        C        0.5        0.796297        0.658521094890511        0        
C1        C        0.5625        0.796297        0.658521094890511        0        
C1        C        0.625        0.796297        0.658521094890511        0        
C1        C        0.6875        0.796297        0.658521094890511        0        
C1        C        0.75        0.796297        0.658521094890511        0        
C1        C        0.8125        0.796297        0.658521094890511        0        
C1        C        0.875        0.796297        0.658521094890511        0        
C1        C        0.9375        0.796297        0.658521094890511        0        
C2        C        0.03125        0.851852        0.658521094890511        0        
C2        C        0.09375        0.851852        0.658521094890511        0        
C2        C        0.15625        0.851852        0.658521094890511        0        
C2        C        0.21875        0.851852        0.658521094890511        0        
C2        C        0.28125        0.851852        0.658521094890511        0        
C2        C        0.34375        0.851852        0.658521094890511        0        
C2        C        0.40625        0.851852        0.658521094890511        0        
C2        C        0.46875        0.851852        0.658521094890511        0        
C2        C        0.53125        0.851852        0.658521094890511        0        
C2        C        0.59375        0.851852        0.658521094890511        0        
C2        C        0.65625        0.851852        0.658521094890511        0        
C2        C        0.71875        0.851852        0.658521094890511        0        
C2        C        0.78125        0.851852        0.658521094890511        0        
C2        C        0.84375        0.851852        0.658521094890511        0        
C2        C        0.9062500000000001        0.851852        0.658521094890511        0        
C2        C        0.9687500000000001        0.851852        0.658521094890511        0        
C3        C        0.0        0.87037        0.658521094890511        0        
C3        C        0.0625        0.87037        0.658521094890511        0        
C3        C        0.125        0.87037        0.658521094890511        0        
C3        C        0.1875        0.87037        0.658521094890511        0        
C3        C        0.25        0.87037        0.658521094890511        0        
C3        C        0.3125        0.87037        0.658521094890511        0        
C3        C        0.375        0.87037        0.658521094890511        0        
C3        C        0.4375        0.87037        0.658521094890511        0        
C3        C        0.5        0.87037        0.658521094890511        0        
C3        C        0.5625        0.87037        0.658521094890511        0        
C3        C        0.625        0.87037        0.658521094890511        0        
C3        C        0.6875        0.87037        0.658521094890511        0        
C3        C        0.75        0.87037        0.658521094890511        0        
C3        C        0.8125        0.87037        0.658521094890511        0        
C3        C        0.875        0.87037        0.658521094890511        0        
C3        C        0.9375        0.87037        0.658521094890511        0        
C4        C        0.03125        0.814814        0.658521094890511        0        
C4        C        0.09375        0.814814        0.658521094890511        0        
C4        C        0.15625        0.814814        0.658521094890511        0        
C4        C        0.21875        0.814814        0.658521094890511        0        
C4        C        0.28125        0.814814        0.658521094890511        0        
C4        C        0.34375        0.814814        0.658521094890511        0        
C4        C        0.40625        0.814814        0.658521094890511        0        
C4        C        0.46875        0.814814        0.658521094890511        0        
C4        C        0.53125        0.814814        0.658521094890511        0        
C4        C        0.59375        0.814814        0.658521094890511        0        
C4        C        0.65625        0.814814        0.658521094890511        0        
C4        C        0.71875        0.814814        0.658521094890511        0        
C4        C        0.78125        0.814814        0.658521094890511        0        
C4        C        0.84375        0.814814        0.658521094890511        0        
C4        C        0.9062500000000001        0.814814        0.658521094890511        0        
C4        C        0.9687500000000001        0.814814        0.658521094890511        0        
C1        C        0.0        0.907408        0.658521094890511        0        
C1        C        0.0625        0.907408        0.658521094890511        0        
C1        C        0.125        0.907408        0.658521094890511        0        
C1        C        0.1875        0.907408        0.658521094890511        0        
C1        C        0.25        0.907408        0.658521094890511        0        
C1        C        0.3125        0.907408        0.658521094890511        0        
C1        C        0.375        0.907408        0.658521094890511        0        
C1        C        0.4375        0.907408        0.658521094890511        0        
C1        C        0.5        0.907408        0.658521094890511        0        
C1        C        0.5625        0.907408        0.658521094890511        0        
C1        C        0.625        0.907408        0.658521094890511        0        
C1        C        0.6875        0.907408        0.658521094890511        0        
C1        C        0.75        0.907408        0.658521094890511        0        
C1        C        0.8125        0.907408        0.658521094890511        0        
C1        C        0.875        0.907408        0.658521094890511        0        
C1        C        0.9375        0.907408        0.658521094890511        0        
C2        C        0.03125        0.962963        0.658521094890511        0        
C2        C        0.09375        0.962963        0.658521094890511        0        
C2        C        0.15625        0.962963        0.658521094890511        0        
C2        C        0.21875        0.962963        0.658521094890511        0        
C2        C        0.28125        0.962963        0.658521094890511        0        
C2        C        0.34375        0.962963        0.658521094890511        0        
C2        C        0.40625        0.962963        0.658521094890511        0        
C2        C        0.46875        0.962963        0.658521094890511        0        
C2        C        0.53125        0.962963        0.658521094890511        0        
C2        C        0.59375        0.962963        0.658521094890511        0        
C2        C        0.65625        0.962963        0.658521094890511        0        
C2        C        0.71875        0.962963        0.658521094890511        0        
C2        C        0.78125        0.962963        0.658521094890511        0        
C2        C        0.84375        0.962963        0.658521094890511        0        
C2        C        0.9062500000000001        0.962963        0.658521094890511        0        
C2        C        0.9687500000000001        0.962963        0.658521094890511        0        
C3        C        0.0        0.9814809999999999        0.658521094890511        0        
C3        C        0.0625        0.9814809999999999        0.658521094890511        0        
C3        C        0.125        0.9814809999999999        0.658521094890511        0        
C3        C        0.1875        0.9814809999999999        0.658521094890511        0        
C3        C        0.25        0.9814809999999999        0.658521094890511        0        
C3        C        0.3125        0.9814809999999999        0.658521094890511        0        
C3        C        0.375        0.9814809999999999        0.658521094890511        0        
C3        C        0.4375        0.9814809999999999        0.658521094890511        0        
C3        C        0.5        0.9814809999999999        0.658521094890511        0        
C3        C        0.5625        0.9814809999999999        0.658521094890511        0        
C3        C        0.625        0.9814809999999999        0.658521094890511        0        
C3        C        0.6875        0.9814809999999999        0.658521094890511        0        
C3        C        0.75        0.9814809999999999        0.658521094890511        0        
C3        C        0.8125        0.9814809999999999        0.658521094890511        0        
C3        C        0.875        0.9814809999999999        0.658521094890511        0        
C3        C        0.9375        0.9814809999999999        0.658521094890511        0        
C4        C        0.03125        0.925925        0.658521094890511        0        
C4        C        0.09375        0.925925        0.658521094890511        0        
C4        C        0.15625        0.925925        0.658521094890511        0        
C4        C        0.21875        0.925925        0.658521094890511        0        
C4        C        0.28125        0.925925        0.658521094890511        0        
C4        C        0.34375        0.925925        0.658521094890511        0        
C4        C        0.40625        0.925925        0.658521094890511        0        
C4        C        0.46875        0.925925        0.658521094890511        0        
C4        C        0.53125        0.925925        0.658521094890511        0        
C4        C        0.59375        0.925925        0.658521094890511        0        
C4        C        0.65625        0.925925        0.658521094890511        0        
C4        C        0.71875        0.925925        0.658521094890511        0        
C4        C        0.78125        0.925925        0.658521094890511        0        
C4        C        0.84375        0.925925        0.658521094890511        0        
C4        C        0.9062500000000001        0.925925        0.658521094890511        0        
C4        C        0.9687500000000001        0.925925        0.658521094890511        0        
O_OH        O        0.0        0.018519        0.0648714598540146        -0.64        
H_OH        H        -0.020469485799531055        0.028934072884574023        0.04033138686131387        0.44        
C_COOH        C        0.0        0.203703        0.05852109489051095        0.55        
O1_COOH        O        0.004554777244286621        0.23289178113581976        0.026764963503649628        -0.5        
O2_COOH        O        -0.004434745816715079        0.17528342685853393        0.0        -0.58        
H_COOH        H        -0.00754801783711214        0.15533237091312427        0.042610218978102195        0.45        
C_COOH        C        0.0        0.351852        0.05852109489051095        0.55        
O1_COOH        O        0.017148822702193575        0.3755988240580301        0.026764963503649628        -0.5        
O2_COOH        O        -0.016696902101093366        0.3287309727788078        0.0        -0.58        
H_COOH        H        -0.02841843029842919        0.31249959219792584        0.042610218978102195        0.45        
C_COOH        C        0.0        0.537037        0.05852109489051095        0.55        
O1_COOH        O        0.025202441472419363        0.5513352875289073        0.026764963503649628        -0.5        
O2_COOH        O        -0.024538284947088228        0.5231155133050029        0.0        -0.58        
H_COOH        H        -0.04176460616404746        0.513342377075525        0.042610218978102195        0.45        
O_OH        O        0.25        0.018519        0.0648714598540146        -0.64        
H_OH        H        0.2728246791659217        0.019523995491556766        0.04033138686131387        0.44        
C_COOH        C        0.25        0.203703        0.05852109489051095        0.55        
O1_COOH        O        0.26630403818713755        0.22806887367983894        0.026764963503649628        -0.5        
O2_COOH        O        0.23412561992210104        0.17997923688780462        0.0        -0.58        
H_COOH        H        0.22298151710759545        0.1633247247763451        0.042610218978102195        0.45        
O_OH        O        0.25        0.351852        0.0648714598540146        -0.64        
H_OH        H        0.272433890847537        0.3562848457367777        0.04033138686131387        0.44        
C_COOH        C        0.25        0.537037        0.05852109489051095        0.55        
O1_COOH        O        0.23622302467644396        0.562994868122426        0.026764963503649628        -0.5        
O2_COOH        O        0.26341391255955837        0.5117631960590565        0.0        -0.58        
H_COOH        H        0.2728307225373306        0.49402052716430955        0.042610218978102195        0.45        
O_OH        O        0.5        0.018519        0.0648714598540146        -0.64        
H_OH        H        0.49320771011378595        0.04091189459859421        0.04033138686131387        0.44        
C_COOH        C        0.5        0.203703        0.05852109489051095        0.55        
O1_COOH        O        0.523185337351102        0.22123316199182552        0.026764963503649628        -0.5        
O2_COOH        O        0.47742566270262654        0.186634807991905        0.0        -0.58        
H_COOH        H        0.46157806836654874        0.17465262754375308        0.042610218978102195        0.45        
C_COOH        C        0.5        0.351852        0.05852109489051095        0.55        
O1_COOH        O        0.491839774957376        0.3802010737944714        0.026764963503649628        -0.5        
O2_COOH        O        0.5079451797377411        0.32425000550609157        0.0        -0.58        
H_COOH        H        0.5135228400584981        0.3048729046041303        0.042610218978102195        0.45        
C_COOH        C        0.5        0.537037        0.05852109489051095        0.55        
O1_COOH        O        0.5255075879509109        0.5507531490662092        0.026764963503649628        -0.5        
O2_COOH        O        0.4751646100582222        0.52368231075167        0.0        -0.58        
H_COOH        H        0.45772971574478455        0.5143070766128351        0.042610218978102195        0.45        
C_COOH        C        0.75        0.018519        0.05852109489051095        0.55        
O1_COOH        O        0.7703235285729063        0.039460201564500905        0.026764963503649628        -0.5        
O2_COOH        O        0.7302120546218496        -0.0018703409170886902        0.0        -0.58        
H_COOH        H        0.7163205579649852        -0.01618402815306392        0.042610218978102195        0.45        
O_OH        O        0.75        0.203703        0.0648714598540146        -0.64        
H_OH        H        0.73010668509822        0.21523484616002217        0.04033138686131387        0.44        
O_OH        O        0.75        0.351852        0.0648714598540146        -0.64        
H_OH        H        0.7720443092888577        0.35800929296900263        0.04033138686131387        0.44        
C_COOH        C        0.75        0.537037        0.05852109489051095        0.55        
O1_COOH        O        0.7747444688699917        0.5521548249909969        0.026764963503649628        -0.5        
O2_COOH        O        0.7259076187654004        0.5223175730026091        0.0        -0.58        
H_COOH        H        0.7089943300443848        0.5119842682042749        0.042610218978102195        0.45        
O_OH        O        0.0        0.685186        0.0648714598540146        -0.64        
H_OH        H        -0.005774758382436348        0.7078778165565637        0.04033138686131387        0.44        
O_OH        O        0.25        0.685186        0.0648714598540146        -0.64        
H_OH        H        0.23268387170495142        0.7004846750305712        0.04033138686131387        0.44        
C_COOH        C        0.5        0.685186        0.05852109489051095        0.55        
O1_COOH        O        0.5284180552776171        0.6899527476607394        0.026764963503649628        -0.5        
O2_COOH        O        0.4723308418826244        0.6805448697944959        0.0        -0.58        
H_COOH        H        0.4529065908984779        0.6772867121888547        0.042610218978102195        0.45        
O_OH        O        0.75        0.685186        0.0648714598540146        -0.64        
H_OH        H        0.7707432354717184        0.6950136902975127        0.04033138686131387        0.44        
O_OH        O        0.0        0.87037        0.0648714598540146        -0.64        
H_OH        H        0.012614691773742836        0.8899238804290314        0.04033138686131387        0.44        
O_OH        O        0.25        0.87037        0.0648714598540146        -0.64        
H_OH        H        0.24962237037466298        0.8938202464640108        0.04033138686131387        0.44        
O_OH        O        0.5        0.87037        0.0648714598540146        -0.64        
H_OH        H        0.505507496575342        0.8931317316563434        0.04033138686131387        0.44        
C_COOH        C        0.75        0.87037        0.05852109489051095        0.55        
O1_COOH        O        0.7590928769392054        0.8984183738973943        0.026764963503649628        -0.5        
O2_COOH        O        0.741146746414739        0.8430607810995241        0.0        -0.58        
H_COOH        H        0.7349316017783573        0.8238892139758129        0.042610218978102195        0.45        
O_OH        O        0.0        0.018519        0.7631196350364964        -0.64        
H_OH        H        -0.018805785119192307        0.031835870041667984        0.7876597080291972        0.44        
C_COOH        C        0.0        0.203703        0.76947        0.55        
O1_COOH        O        -0.017787141986237525        0.22694969894449907        0.8012261313868613        -0.5        
O2_COOH        O        0.01731839984353364        0.18106891816298612        0.827991094890511        -0.58        
H_COOH        H        0.02947623073154148        0.1651793820761696        0.7853808759124088        0.45        
C_COOH        C        0.0        0.351852        0.76947        0.55        
O1_COOH        O        -0.004727874458398745        0.3810117584162247        0.8012261313868613        -0.5        
O2_COOH        O        0.004603281423397422        0.323460684746332        0.827991094890511        -0.58        
H_COOH        H        0.007834868497330841        0.3035294663508233        0.7853808759124088        0.45        
C_COOH        C        0.0        0.537037        0.76947        0.55        
O1_COOH        O        -0.018813518329285267        0.5594159533244557        0.8012261313868613        -0.5        
O2_COOH        O        0.01831772822988137        0.515247796200279        0.827991094890511        -0.58        
H_COOH        H        0.031177105775350048        0.49995137982378246        0.7853808759124088        0.45        
O_OH        O        0.25        0.018519        0.7631196350364964        -0.64        
H_OH        H        0.24443226587719397        0.041265281312387214        0.7876597080291972        0.44        
C_COOH        C        0.25        0.203703        0.76947        0.55        
O1_COOH        O        0.27484063786601387        0.2186536849942391        0.8012261313868613        -0.5        
O2_COOH        O        0.22581398409790004        0.18914630838167892        0.827991094890511        -0.58        
H_COOH        H        0.20883496214153888        0.17892724677186692        0.7853808759124088        0.45        
O_OH        O        0.25        0.351852        0.7631196350364964        -0.64        
H_OH        H        0.27229354951578644        0.3569770039920208        0.7876597080291972        0.44        
C_COOH        C        0.25        0.537037        0.76947        0.55        
O1_COOH        O        0.2708390811083437        0.557437202431939        0.8012261313868613        -0.5        
O2_COOH        O        0.22971008837252416        0.5171744013386351        0.827991094890511        -0.58        
H_COOH        H        0.215466202301746        0.5032304967225624        0.7853808759124088        0.45        
O_OH        O        0.5        0.018519        0.7631196350364964        -0.64        
H_OH        H        0.5159669544416237        0.035293242121337665        0.7876597080291972        0.44        
C_COOH        C        0.5        0.203703        0.76947        0.55        
O1_COOH        O        0.5198181132791176        0.225148651762294        0.8012261313868613        -0.5        
O2_COOH        O        0.4807041507748821        0.18282250259283045        0.827991094890511        -0.58        
H_COOH        H        0.4671581145452663        0.16816401459004648        0.7853808759124088        0.45        
C_COOH        C        0.5        0.351852        0.76947        0.55        
O1_COOH        O        0.5287401995230131        0.3536729656050474        0.8012261313868613        -0.5        
O2_COOH        O        0.4720171870608787        0.3500790220548117        0.827991094890511        -0.58        
H_COOH        H        0.45237274470140615        0.34883435937116214        0.7853808759124088        0.45        
C_COOH        C        0.5        0.537037        0.76947        0.55        
O1_COOH        O        0.5138287240121211        0.5629658514337486        0.8012261313868613        -0.5        
O2_COOH        O        0.48653570247805467        0.5117914480748689        0.827991094890511        -0.58        
H_COOH        H        0.47708352134258125        0.4940686126077824        0.7853808759124088        0.45        
C_COOH        C        0.75        0.018519        0.76947        0.55        
O1_COOH        O        0.7218334537671233        0.02466072034316146        0.8012261313868613        -0.5        
O2_COOH        O        0.7774242770564131        0.012539131580872708        0.827991094890511        -0.58        
H_COOH        H        0.7966766170930266        0.008341155461304478        0.7853808759124088        0.45        
O_OH        O        0.75        0.203703        0.7631196350364964        -0.64        
H_OH        H        0.7508185099014127        0.22714139312127754        0.7876597080291972        0.44        
O_OH        O        0.75        0.351852        0.7631196350364964        -0.64        
H_OH        H        0.7468846024957223        0.37508635728838197        0.7876597080291972        0.44        
C_COOH        C        0.75        0.537037        0.76947        0.55        
O1_COOH        O        0.7478585546103982        0.5665160848558455        0.8012261313868613        -0.5        
O2_COOH        O        0.7520850121694037        0.5083347734731074        0.827991094890511        -0.58        
H_COOH        H        0.7535487285395112        0.4881852897231093        0.7853808759124088        0.45        
O_OH        O        0.0        0.685186        0.7631196350364964        -0.64        
H_OH        H        0.02237224024079672        0.6899358820806462        0.7876597080291972        0.44        
O_OH        O        0.25        0.685186        0.7631196350364964        -0.64        
H_OH        H        0.243417114543193        0.7076447078499025        0.7876597080291972        0.44        
C_COOH        C        0.5        0.685186        0.76947        0.55        
O1_COOH        O        0.5201059586568443        0.7063473898512562        0.8012261313868613        -0.5        
O2_COOH        O        0.4804238909473932        0.6645822733882425        0.827991094890511        -0.58        
H_COOH        H        0.466681107234286        0.6501180835051323        0.7853808759124088        0.45        
O_OH        O        0.75        0.685186        0.7631196350364964        -0.64        
H_OH        H        0.7712026290425161        0.6939195499508197        0.7876597080291972        0.44        
O_OH        O        0.0        0.87037        0.7631196350364964        -0.64        
H_OH        H        0.005123123536334848        0.893226133943697        0.7876597080291972        0.44        
O_OH        O        0.25        0.87037        0.7631196350364964        -0.64        
H_OH        H        0.2606580880624539        0.8911147569552824        0.7876597080291972        0.44        
O_OH        O        0.5        0.87037        0.7631196350364964        -0.64        
H_OH        H        0.5162987831975546        0.8868044527645244        0.7876597080291972        0.44        
C_COOH        C        0.75        0.87037        0.76947        0.55        
O1_COOH        O        0.7755316467784859        0.8840388915178681        0.8012261313868613        -0.5        
O2_COOH        O        0.7251411852496706        0.8570613229282428        0.827991094890511        -0.58        
H_COOH        H        0.7076898462956467        0.8477183901721346        0.7853808759124088        0.45        
