data_graphite_ortho

_audit_creation_method RASPA-1.0
_audit_creation_date 2012-2-3
_audit_author_name 'David Dubbeldam'

_cell_length_a    39.36    
_cell_length_b    38.339999999999996    
_cell_length_c    13.7    
_cell_angle_alpha 90
_cell_angle_beta  90
_cell_angle_gamma 90
_cell_volume      20674.15      

_symmetry_cell_setting          triclinic
_symmetry_space_group_name_Hall 'P 1'
_symmetry_space_group_name_H-M  'P 1'
_symmetry_Int_Tables_number     1

_symmetry_equiv_pos_as_xyz 'x,y,z'

loop_
_atom_site_label
_atom_site_type_symbol
_atom_site_fract_x
_atom_site_fract_y
_atom_site_fract_z
_atom_site_charge
C_FG        C        0.0        0.018519        0.12913861313868613        0.2        
C2        C        0.03125        0.074075        0.12913861313868613        0        
C3        C        0.0        0.092592        0.12913861313868613        0        
C4        C        0.03125        0.037037        0.12913861313868613        0        
C1        C        0.0        0.12963        0.12913861313868613        0        
C2        C        0.03125        0.185185        0.12913861313868613        0        
C_FG        C        0.0        0.203703        0.12913861313868613        0.2        
C4        C        0.03125        0.148148        0.12913861313868613        0        
C1        C        0.0        0.24074099999999998        0.12913861313868613        0        
C2        C        0.03125        0.296297        0.12913861313868613        0        
C3        C        0.0        0.314815        0.12913861313868613        0        
C4        C        0.03125        0.259259        0.12913861313868613        0        
C_FG        C        0.0        0.351852        0.12913861313868613        0.2        
C2        C        0.03125        0.407408        0.12913861313868613        0        
C3        C        0.0        0.425925        0.12913861313868613        0        
C4        C        0.03125        0.37037        0.12913861313868613        0        
C1        C        0.0        0.46296300000000007        0.12913861313868613        0        
C2        C        0.03125        0.518519        0.12913861313868613        0        
C_FG        C        0.0        0.537037        0.12913861313868613        0.2        
C4        C        0.03125        0.481481        0.12913861313868613        0        
C1        C        0.0        0.574075        0.12913861313868613        0        
C2        C        0.03125        0.62963        0.12913861313868613        0        
C3        C        0.0        0.648148        0.12913861313868613        0        
C4        C        0.03125        0.592592        0.12913861313868613        0        
C1        C        0.0625        0.018519        0.12913861313868613        0        
C2        C        0.09375        0.074075        0.12913861313868613        0        
C3        C        0.0625        0.092592        0.12913861313868613        0        
C4        C        0.09375        0.037037        0.12913861313868613        0        
C1        C        0.0625        0.12963        0.12913861313868613        0        
C2        C        0.09375        0.185185        0.12913861313868613        0        
C3        C        0.0625        0.203703        0.12913861313868613        0        
C4        C        0.09375        0.148148        0.12913861313868613        0        
C1        C        0.0625        0.24074099999999998        0.12913861313868613        0        
C2        C        0.09375        0.296297        0.12913861313868613        0        
C3        C        0.0625        0.314815        0.12913861313868613        0        
C4        C        0.09375        0.259259        0.12913861313868613        0        
C1        C        0.0625        0.351852        0.12913861313868613        0        
C2        C        0.09375        0.407408        0.12913861313868613        0        
C3        C        0.0625        0.425925        0.12913861313868613        0        
C4        C        0.09375        0.37037        0.12913861313868613        0        
C1        C        0.0625        0.46296300000000007        0.12913861313868613        0        
C2        C        0.09375        0.518519        0.12913861313868613        0        
C3        C        0.0625        0.537037        0.12913861313868613        0        
C4        C        0.09375        0.481481        0.12913861313868613        0        
C1        C        0.0625        0.574075        0.12913861313868613        0        
C2        C        0.09375        0.62963        0.12913861313868613        0        
C3        C        0.0625        0.648148        0.12913861313868613        0        
C4        C        0.09375        0.592592        0.12913861313868613        0        
C_FG        C        0.125        0.018519        0.12913861313868613        0.2        
C2        C        0.15625        0.074075        0.12913861313868613        0        
C3        C        0.125        0.092592        0.12913861313868613        0        
C4        C        0.15625        0.037037        0.12913861313868613        0        
C1        C        0.125        0.12963        0.12913861313868613        0        
C2        C        0.15625        0.185185        0.12913861313868613        0        
C_FG        C        0.125        0.203703        0.12913861313868613        0.2        
C4        C        0.15625        0.148148        0.12913861313868613        0        
C1        C        0.125        0.24074099999999998        0.12913861313868613        0        
C2        C        0.15625        0.296297        0.12913861313868613        0        
C3        C        0.125        0.314815        0.12913861313868613        0        
C4        C        0.15625        0.259259        0.12913861313868613        0        
C_FG        C        0.125        0.351852        0.12913861313868613        0.2        
C2        C        0.15625        0.407408        0.12913861313868613        0        
C3        C        0.125        0.425925        0.12913861313868613        0        
C4        C        0.15625        0.37037        0.12913861313868613        0        
C1        C        0.125        0.46296300000000007        0.12913861313868613        0        
C2        C        0.15625        0.518519        0.12913861313868613        0        
C_FG        C        0.125        0.537037        0.12913861313868613        0.2        
C4        C        0.15625        0.481481        0.12913861313868613        0        
C1        C        0.125        0.574075        0.12913861313868613        0        
C2        C        0.15625        0.62963        0.12913861313868613        0        
C3        C        0.125        0.648148        0.12913861313868613        0        
C4        C        0.15625        0.592592        0.12913861313868613        0        
C1        C        0.1875        0.018519        0.12913861313868613        0        
C2        C        0.21875        0.074075        0.12913861313868613        0        
C3        C        0.1875        0.092592        0.12913861313868613        0        
C4        C        0.21875        0.037037        0.12913861313868613        0        
C1        C        0.1875        0.12963        0.12913861313868613        0        
C2        C        0.21875        0.185185        0.12913861313868613        0        
C3        C        0.1875        0.203703        0.12913861313868613        0        
C4        C        0.21875        0.148148        0.12913861313868613        0        
C1        C        0.1875        0.24074099999999998        0.12913861313868613        0        
C2        C        0.21875        0.296297        0.12913861313868613        0        
C3        C        0.1875        0.314815        0.12913861313868613        0        
C4        C        0.21875        0.259259        0.12913861313868613        0        
C1        C        0.1875        0.351852        0.12913861313868613        0        
C2        C        0.21875        0.407408        0.12913861313868613        0        
C3        C        0.1875        0.425925        0.12913861313868613        0        
C4        C        0.21875        0.37037        0.12913861313868613        0        
C1        C        0.1875        0.46296300000000007        0.12913861313868613        0        
C2        C        0.21875        0.518519        0.12913861313868613        0        
C3        C        0.1875        0.537037        0.12913861313868613        0        
C4        C        0.21875        0.481481        0.12913861313868613        0        
C1        C        0.1875        0.574075        0.12913861313868613        0        
C2        C        0.21875        0.62963        0.12913861313868613        0        
C3        C        0.1875        0.648148        0.12913861313868613        0        
C4        C        0.21875        0.592592        0.12913861313868613        0        
C_FG        C        0.25        0.018519        0.12913861313868613        0.2        
C2        C        0.28125        0.074075        0.12913861313868613        0        
C3        C        0.25        0.092592        0.12913861313868613        0        
C4        C        0.28125        0.037037        0.12913861313868613        0        
C1        C        0.25        0.12963        0.12913861313868613        0        
C2        C        0.28125        0.185185        0.12913861313868613        0        
C_FG        C        0.25        0.203703        0.12913861313868613        0.2        
C4        C        0.28125        0.148148        0.12913861313868613        0        
C1        C        0.25        0.24074099999999998        0.12913861313868613        0        
C2        C        0.28125        0.296297        0.12913861313868613        0        
C3        C        0.25        0.314815        0.12913861313868613        0        
C4        C        0.28125        0.259259        0.12913861313868613        0        
C_FG        C        0.25        0.351852        0.12913861313868613        0.2        
C2        C        0.28125        0.407408        0.12913861313868613        0        
C3        C        0.25        0.425925        0.12913861313868613        0        
C4        C        0.28125        0.37037        0.12913861313868613        0        
C1        C        0.25        0.46296300000000007        0.12913861313868613        0        
C2        C        0.28125        0.518519        0.12913861313868613        0        
C_FG        C        0.25        0.537037        0.12913861313868613        0.2        
C4        C        0.28125        0.481481        0.12913861313868613        0        
C1        C        0.25        0.574075        0.12913861313868613        0        
C2        C        0.28125        0.62963        0.12913861313868613        0        
C3        C        0.25        0.648148        0.12913861313868613        0        
C4        C        0.28125        0.592592        0.12913861313868613        0        
C1        C        0.3125        0.018519        0.12913861313868613        0        
C2        C        0.34375        0.074075        0.12913861313868613        0        
C3        C        0.3125        0.092592        0.12913861313868613        0        
C4        C        0.34375        0.037037        0.12913861313868613        0        
C1        C        0.3125        0.12963        0.12913861313868613        0        
C2        C        0.34375        0.185185        0.12913861313868613        0        
C3        C        0.3125        0.203703        0.12913861313868613        0        
C4        C        0.34375        0.148148        0.12913861313868613        0        
C1        C        0.3125        0.24074099999999998        0.12913861313868613        0        
C2        C        0.34375        0.296297        0.12913861313868613        0        
C3        C        0.3125        0.314815        0.12913861313868613        0        
C4        C        0.34375        0.259259        0.12913861313868613        0        
C1        C        0.3125        0.351852        0.12913861313868613        0        
C2        C        0.34375        0.407408        0.12913861313868613        0        
C3        C        0.3125        0.425925        0.12913861313868613        0        
C4        C        0.34375        0.37037        0.12913861313868613        0        
C1        C        0.3125        0.46296300000000007        0.12913861313868613        0        
C2        C        0.34375        0.518519        0.12913861313868613        0        
C3        C        0.3125        0.537037        0.12913861313868613        0        
C4        C        0.34375        0.481481        0.12913861313868613        0        
C1        C        0.3125        0.574075        0.12913861313868613        0        
C2        C        0.34375        0.62963        0.12913861313868613        0        
C3        C        0.3125        0.648148        0.12913861313868613        0        
C4        C        0.34375        0.592592        0.12913861313868613        0        
C_FG        C        0.375        0.018519        0.12913861313868613        0.2        
C2        C        0.40625        0.074075        0.12913861313868613        0        
C3        C        0.375        0.092592        0.12913861313868613        0        
C4        C        0.40625        0.037037        0.12913861313868613        0        
C1        C        0.375        0.12963        0.12913861313868613        0        
C2        C        0.40625        0.185185        0.12913861313868613        0        
C_FG        C        0.375        0.203703        0.12913861313868613        0.2        
C4        C        0.40625        0.148148        0.12913861313868613        0        
C1        C        0.375        0.24074099999999998        0.12913861313868613        0        
C2        C        0.40625        0.296297        0.12913861313868613        0        
C3        C        0.375        0.314815        0.12913861313868613        0        
C4        C        0.40625        0.259259        0.12913861313868613        0        
C_FG        C        0.375        0.351852        0.12913861313868613        0.2        
C2        C        0.40625        0.407408        0.12913861313868613        0        
C3        C        0.375        0.425925        0.12913861313868613        0        
C4        C        0.40625        0.37037        0.12913861313868613        0        
C1        C        0.375        0.46296300000000007        0.12913861313868613        0        
C2        C        0.40625        0.518519        0.12913861313868613        0        
C_FG        C        0.375        0.537037        0.12913861313868613        0.2        
C4        C        0.40625        0.481481        0.12913861313868613        0        
C1        C        0.375        0.574075        0.12913861313868613        0        
C2        C        0.40625        0.62963        0.12913861313868613        0        
C3        C        0.375        0.648148        0.12913861313868613        0        
C4        C        0.40625        0.592592        0.12913861313868613        0        
C1        C        0.4375        0.018519        0.12913861313868613        0        
C2        C        0.46875        0.074075        0.12913861313868613        0        
C3        C        0.4375        0.092592        0.12913861313868613        0        
C4        C        0.46875        0.037037        0.12913861313868613        0        
C1        C        0.4375        0.12963        0.12913861313868613        0        
C2        C        0.46875        0.185185        0.12913861313868613        0        
C3        C        0.4375        0.203703        0.12913861313868613        0        
C4        C        0.46875        0.148148        0.12913861313868613        0        
C1        C        0.4375        0.24074099999999998        0.12913861313868613        0        
C2        C        0.46875        0.296297        0.12913861313868613        0        
C3        C        0.4375        0.314815        0.12913861313868613        0        
C4        C        0.46875        0.259259        0.12913861313868613        0        
C1        C        0.4375        0.351852        0.12913861313868613        0        
C2        C        0.46875        0.407408        0.12913861313868613        0        
C3        C        0.4375        0.425925        0.12913861313868613        0        
C4        C        0.46875        0.37037        0.12913861313868613        0        
C1        C        0.4375        0.46296300000000007        0.12913861313868613        0        
C2        C        0.46875        0.518519        0.12913861313868613        0        
C3        C        0.4375        0.537037        0.12913861313868613        0        
C4        C        0.46875        0.481481        0.12913861313868613        0        
C1        C        0.4375        0.574075        0.12913861313868613        0        
C2        C        0.46875        0.62963        0.12913861313868613        0        
C3        C        0.4375        0.648148        0.12913861313868613        0        
C4        C        0.46875        0.592592        0.12913861313868613        0        
C_FG        C        0.5        0.018519        0.12913861313868613        0.2        
C2        C        0.53125        0.074075        0.12913861313868613        0        
C3        C        0.5        0.092592        0.12913861313868613        0        
C4        C        0.53125        0.037037        0.12913861313868613        0        
C1        C        0.5        0.12963        0.12913861313868613        0        
C2        C        0.53125        0.185185        0.12913861313868613        0        
C_FG        C        0.5        0.203703        0.12913861313868613        0.2        
C4        C        0.53125        0.148148        0.12913861313868613        0        
C1        C        0.5        0.24074099999999998        0.12913861313868613        0        
C2        C        0.53125        0.296297        0.12913861313868613        0        
C3        C        0.5        0.314815        0.12913861313868613        0        
C4        C        0.53125        0.259259        0.12913861313868613        0        
C_FG        C        0.5        0.351852        0.12913861313868613        0.2        
C2        C        0.53125        0.407408        0.12913861313868613        0        
C3        C        0.5        0.425925        0.12913861313868613        0        
C4        C        0.53125        0.37037        0.12913861313868613        0        
C1        C        0.5        0.46296300000000007        0.12913861313868613        0        
C2        C        0.53125        0.518519        0.12913861313868613        0        
C_FG        C        0.5        0.537037        0.12913861313868613        0.2        
C4        C        0.53125        0.481481        0.12913861313868613        0        
C1        C        0.5        0.574075        0.12913861313868613        0        
C2        C        0.53125        0.62963        0.12913861313868613        0        
C3        C        0.5        0.648148        0.12913861313868613        0        
C4        C        0.53125        0.592592        0.12913861313868613        0        
C1        C        0.5625        0.018519        0.12913861313868613        0        
C2        C        0.59375        0.074075        0.12913861313868613        0        
C3        C        0.5625        0.092592        0.12913861313868613        0        
C4        C        0.59375        0.037037        0.12913861313868613        0        
C1        C        0.5625        0.12963        0.12913861313868613        0        
C2        C        0.59375        0.185185        0.12913861313868613        0        
C3        C        0.5625        0.203703        0.12913861313868613        0        
C4        C        0.59375        0.148148        0.12913861313868613        0        
C1        C        0.5625        0.24074099999999998        0.12913861313868613        0        
C2        C        0.59375        0.296297        0.12913861313868613        0        
C3        C        0.5625        0.314815        0.12913861313868613        0        
C4        C        0.59375        0.259259        0.12913861313868613        0        
C1        C        0.5625        0.351852        0.12913861313868613        0        
C2        C        0.59375        0.407408        0.12913861313868613        0        
C3        C        0.5625        0.425925        0.12913861313868613        0        
C4        C        0.59375        0.37037        0.12913861313868613        0        
C1        C        0.5625        0.46296300000000007        0.12913861313868613        0        
C2        C        0.59375        0.518519        0.12913861313868613        0        
C3        C        0.5625        0.537037        0.12913861313868613        0        
C4        C        0.59375        0.481481        0.12913861313868613        0        
C1        C        0.5625        0.574075        0.12913861313868613        0        
C2        C        0.59375        0.62963        0.12913861313868613        0        
C3        C        0.5625        0.648148        0.12913861313868613        0        
C4        C        0.59375        0.592592        0.12913861313868613        0        
C_FG        C        0.625        0.018519        0.12913861313868613        0.2        
C2        C        0.65625        0.074075        0.12913861313868613        0        
C3        C        0.625        0.092592        0.12913861313868613        0        
C4        C        0.65625        0.037037        0.12913861313868613        0        
C1        C        0.625        0.12963        0.12913861313868613        0        
C2        C        0.65625        0.185185        0.12913861313868613        0        
C_FG        C        0.625        0.203703        0.12913861313868613        0.2        
C4        C        0.65625        0.148148        0.12913861313868613        0        
C1        C        0.625        0.24074099999999998        0.12913861313868613        0        
C2        C        0.65625        0.296297        0.12913861313868613        0        
C3        C        0.625        0.314815        0.12913861313868613        0        
C4        C        0.65625        0.259259        0.12913861313868613        0        
C_FG        C        0.625        0.351852        0.12913861313868613        0.2        
C2        C        0.65625        0.407408        0.12913861313868613        0        
C3        C        0.625        0.425925        0.12913861313868613        0        
C4        C        0.65625        0.37037        0.12913861313868613        0        
C1        C        0.625        0.46296300000000007        0.12913861313868613        0        
C2        C        0.65625        0.518519        0.12913861313868613        0        
C_FG        C        0.625        0.537037        0.12913861313868613        0.2        
C4        C        0.65625        0.481481        0.12913861313868613        0        
C1        C        0.625        0.574075        0.12913861313868613        0        
C2        C        0.65625        0.62963        0.12913861313868613        0        
C3        C        0.625        0.648148        0.12913861313868613        0        
C4        C        0.65625        0.592592        0.12913861313868613        0        
C1        C        0.6875        0.018519        0.12913861313868613        0        
C2        C        0.71875        0.074075        0.12913861313868613        0        
C3        C        0.6875        0.092592        0.12913861313868613        0        
C4        C        0.71875        0.037037        0.12913861313868613        0        
C1        C        0.6875        0.12963        0.12913861313868613        0        
C2        C        0.71875        0.185185        0.12913861313868613        0        
C3        C        0.6875        0.203703        0.12913861313868613        0        
C4        C        0.71875        0.148148        0.12913861313868613        0        
C1        C        0.6875        0.24074099999999998        0.12913861313868613        0        
C2        C        0.71875        0.296297        0.12913861313868613        0        
C3        C        0.6875        0.314815        0.12913861313868613        0        
C4        C        0.71875        0.259259        0.12913861313868613        0        
C1        C        0.6875        0.351852        0.12913861313868613        0        
C2        C        0.71875        0.407408        0.12913861313868613        0        
C3        C        0.6875        0.425925        0.12913861313868613        0        
C4        C        0.71875        0.37037        0.12913861313868613        0        
C1        C        0.6875        0.46296300000000007        0.12913861313868613        0        
C2        C        0.71875        0.518519        0.12913861313868613        0        
C3        C        0.6875        0.537037        0.12913861313868613        0        
C4        C        0.71875        0.481481        0.12913861313868613        0        
C1        C        0.6875        0.574075        0.12913861313868613        0        
C2        C        0.71875        0.62963        0.12913861313868613        0        
C3        C        0.6875        0.648148        0.12913861313868613        0        
C4        C        0.71875        0.592592        0.12913861313868613        0        
C_FG        C        0.75        0.018519        0.12913861313868613        0.2        
C2        C        0.78125        0.074075        0.12913861313868613        0        
C3        C        0.75        0.092592        0.12913861313868613        0        
C4        C        0.78125        0.037037        0.12913861313868613        0        
C1        C        0.75        0.12963        0.12913861313868613        0        
C2        C        0.78125        0.185185        0.12913861313868613        0        
C_FG        C        0.75        0.203703        0.12913861313868613        0.2        
C4        C        0.78125        0.148148        0.12913861313868613        0        
C1        C        0.75        0.24074099999999998        0.12913861313868613        0        
C2        C        0.78125        0.296297        0.12913861313868613        0        
C3        C        0.75        0.314815        0.12913861313868613        0        
C4        C        0.78125        0.259259        0.12913861313868613        0        
C_FG        C        0.75        0.351852        0.12913861313868613        0.2        
C2        C        0.78125        0.407408        0.12913861313868613        0        
C3        C        0.75        0.425925        0.12913861313868613        0        
C4        C        0.78125        0.37037        0.12913861313868613        0        
C1        C        0.75        0.46296300000000007        0.12913861313868613        0        
C2        C        0.78125        0.518519        0.12913861313868613        0        
C_FG        C        0.75        0.537037        0.12913861313868613        0.2        
C4        C        0.78125        0.481481        0.12913861313868613        0        
C1        C        0.75        0.574075        0.12913861313868613        0        
C2        C        0.78125        0.62963        0.12913861313868613        0        
C3        C        0.75        0.648148        0.12913861313868613        0        
C4        C        0.78125        0.592592        0.12913861313868613        0        
C1        C        0.8125        0.018519        0.12913861313868613        0        
C2        C        0.84375        0.074075        0.12913861313868613        0        
C3        C        0.8125        0.092592        0.12913861313868613        0        
C4        C        0.84375        0.037037        0.12913861313868613        0        
C1        C        0.8125        0.12963        0.12913861313868613        0        
C2        C        0.84375        0.185185        0.12913861313868613        0        
C3        C        0.8125        0.203703        0.12913861313868613        0        
C4        C        0.84375        0.148148        0.12913861313868613        0        
C1        C        0.8125        0.24074099999999998        0.12913861313868613        0        
C2        C        0.84375        0.296297        0.12913861313868613        0        
C3        C        0.8125        0.314815        0.12913861313868613        0        
C4        C        0.84375        0.259259        0.12913861313868613        0        
C1        C        0.8125        0.351852        0.12913861313868613        0        
C2        C        0.84375        0.407408        0.12913861313868613        0        
C3        C        0.8125        0.425925        0.12913861313868613        0        
C4        C        0.84375        0.37037        0.12913861313868613        0        
C1        C        0.8125        0.46296300000000007        0.12913861313868613        0        
C2        C        0.84375        0.518519        0.12913861313868613        0        
C3        C        0.8125        0.537037        0.12913861313868613        0        
C4        C        0.84375        0.481481        0.12913861313868613        0        
C1        C        0.8125        0.574075        0.12913861313868613        0        
C2        C        0.84375        0.62963        0.12913861313868613        0        
C3        C        0.8125        0.648148        0.12913861313868613        0        
C4        C        0.84375        0.592592        0.12913861313868613        0        
C_FG        C        0.875        0.018519        0.12913861313868613        0.2        
C2        C        0.9062500000000001        0.074075        0.12913861313868613        0        
C3        C        0.875        0.092592        0.12913861313868613        0        
C4        C        0.9062500000000001        0.037037        0.12913861313868613        0        
C1        C        0.875        0.12963        0.12913861313868613        0        
C2        C        0.9062500000000001        0.185185        0.12913861313868613        0        
C_FG        C        0.875        0.203703        0.12913861313868613        0.2        
C4        C        0.9062500000000001        0.148148        0.12913861313868613        0        
C1        C        0.875        0.24074099999999998        0.12913861313868613        0        
C2        C        0.9062500000000001        0.296297        0.12913861313868613        0        
C3        C        0.875        0.314815        0.12913861313868613        0        
C4        C        0.9062500000000001        0.259259        0.12913861313868613        0        
C_FG        C        0.875        0.351852        0.12913861313868613        0.2        
C2        C        0.9062500000000001        0.407408        0.12913861313868613        0        
C3        C        0.875        0.425925        0.12913861313868613        0        
C4        C        0.9062500000000001        0.37037        0.12913861313868613        0        
C1        C        0.875        0.46296300000000007        0.12913861313868613        0        
C2        C        0.9062500000000001        0.518519        0.12913861313868613        0        
C_FG        C        0.875        0.537037        0.12913861313868613        0.2        
C4        C        0.9062500000000001        0.481481        0.12913861313868613        0        
C1        C        0.875        0.574075        0.12913861313868613        0        
C2        C        0.9062500000000001        0.62963        0.12913861313868613        0        
C3        C        0.875        0.648148        0.12913861313868613        0        
C4        C        0.9062500000000001        0.592592        0.12913861313868613        0        
C1        C        0.9375        0.018519        0.12913861313868613        0        
C2        C        0.9687500000000001        0.074075        0.12913861313868613        0        
C3        C        0.9375        0.092592        0.12913861313868613        0        
C4        C        0.9687500000000001        0.037037        0.12913861313868613        0        
C1        C        0.9375        0.12963        0.12913861313868613        0        
C2        C        0.9687500000000001        0.185185        0.12913861313868613        0        
C3        C        0.9375        0.203703        0.12913861313868613        0        
C4        C        0.9687500000000001        0.148148        0.12913861313868613        0        
C1        C        0.9375        0.24074099999999998        0.12913861313868613        0        
C2        C        0.9687500000000001        0.296297        0.12913861313868613        0        
C3        C        0.9375        0.314815        0.12913861313868613        0        
C4        C        0.9687500000000001        0.259259        0.12913861313868613        0        
C1        C        0.9375        0.351852        0.12913861313868613        0        
C2        C        0.9687500000000001        0.407408        0.12913861313868613        0        
C3        C        0.9375        0.425925        0.12913861313868613        0        
C4        C        0.9687500000000001        0.37037        0.12913861313868613        0        
C1        C        0.9375        0.46296300000000007        0.12913861313868613        0        
C2        C        0.9687500000000001        0.518519        0.12913861313868613        0        
C3        C        0.9375        0.537037        0.12913861313868613        0        
C4        C        0.9687500000000001        0.481481        0.12913861313868613        0        
C1        C        0.9375        0.574075        0.12913861313868613        0        
C2        C        0.9687500000000001        0.62963        0.12913861313868613        0        
C3        C        0.9375        0.648148        0.12913861313868613        0        
C4        C        0.9687500000000001        0.592592        0.12913861313868613        0        
C_FG        C        0.0        0.685186        0.12913861313868613        0.2        
C1        C        0.0625        0.685186        0.12913861313868613        0        
C_FG        C        0.125        0.685186        0.12913861313868613        0.2        
C1        C        0.1875        0.685186        0.12913861313868613        0        
C_FG        C        0.25        0.685186        0.12913861313868613        0.2        
C1        C        0.3125        0.685186        0.12913861313868613        0        
C_FG        C        0.375        0.685186        0.12913861313868613        0.2        
C1        C        0.4375        0.685186        0.12913861313868613        0        
C_FG        C        0.5        0.685186        0.12913861313868613        0.2        
C1        C        0.5625        0.685186        0.12913861313868613        0        
C_FG        C        0.625        0.685186        0.12913861313868613        0.2        
C1        C        0.6875        0.685186        0.12913861313868613        0        
C_FG        C        0.75        0.685186        0.12913861313868613        0.2        
C1        C        0.8125        0.685186        0.12913861313868613        0        
C_FG        C        0.875        0.685186        0.12913861313868613        0.2        
C1        C        0.9375        0.685186        0.12913861313868613        0        
C2        C        0.03125        0.740741        0.12913861313868613        0        
C2        C        0.09375        0.740741        0.12913861313868613        0        
C2        C        0.15625        0.740741        0.12913861313868613        0        
C2        C        0.21875        0.740741        0.12913861313868613        0        
C2        C        0.28125        0.740741        0.12913861313868613        0        
C2        C        0.34375        0.740741        0.12913861313868613        0        
C2        C        0.40625        0.740741        0.12913861313868613        0        
C2        C        0.46875        0.740741        0.12913861313868613        0        
C2        C        0.53125        0.740741        0.12913861313868613        0        
C2        C        0.59375        0.740741        0.12913861313868613        0        
C2        C        0.65625        0.740741        0.12913861313868613        0        
C2        C        0.71875        0.740741        0.12913861313868613        0        
C2        C        0.78125        0.740741        0.12913861313868613        0        
C2        C        0.84375        0.740741        0.12913861313868613        0        
C2        C        0.9062500000000001        0.740741        0.12913861313868613        0        
C2        C        0.9687500000000001        0.740741        0.12913861313868613        0        
C3        C        0.0        0.759259        0.12913861313868613        0        
C3        C        0.0625        0.759259        0.12913861313868613        0        
C3        C        0.125        0.759259        0.12913861313868613        0        
C3        C        0.1875        0.759259        0.12913861313868613        0        
C3        C        0.25        0.759259        0.12913861313868613        0        
C3        C        0.3125        0.759259        0.12913861313868613        0        
C3        C        0.375        0.759259        0.12913861313868613        0        
C3        C        0.4375        0.759259        0.12913861313868613        0        
C3        C        0.5        0.759259        0.12913861313868613        0        
C3        C        0.5625        0.759259        0.12913861313868613        0        
C3        C        0.625        0.759259        0.12913861313868613        0        
C3        C        0.6875        0.759259        0.12913861313868613        0        
C3        C        0.75        0.759259        0.12913861313868613        0        
C3        C        0.8125        0.759259        0.12913861313868613        0        
C3        C        0.875        0.759259        0.12913861313868613        0        
C3        C        0.9375        0.759259        0.12913861313868613        0        
C4        C        0.03125        0.703703        0.12913861313868613        0        
C4        C        0.09375        0.703703        0.12913861313868613        0        
C4        C        0.15625        0.703703        0.12913861313868613        0        
C4        C        0.21875        0.703703        0.12913861313868613        0        
C4        C        0.28125        0.703703        0.12913861313868613        0        
C4        C        0.34375        0.703703        0.12913861313868613        0        
C4        C        0.40625        0.703703        0.12913861313868613        0        
C4        C        0.46875        0.703703        0.12913861313868613        0        
C4        C        0.53125        0.703703        0.12913861313868613        0        
C4        C        0.59375        0.703703        0.12913861313868613        0        
C4        C        0.65625        0.703703        0.12913861313868613        0        
C4        C        0.71875        0.703703        0.12913861313868613        0        
C4        C        0.78125        0.703703        0.12913861313868613        0        
C4        C        0.84375        0.703703        0.12913861313868613        0        
C4        C        0.9062500000000001        0.703703        0.12913861313868613        0        
C4        C        0.9687500000000001        0.703703        0.12913861313868613        0        
C1        C        0.0        0.796297        0.12913861313868613        0        
C1        C        0.0625        0.796297        0.12913861313868613        0        
C1        C        0.125        0.796297        0.12913861313868613        0        
C1        C        0.1875        0.796297        0.12913861313868613        0        
C1        C        0.25        0.796297        0.12913861313868613        0        
C1        C        0.3125        0.796297        0.12913861313868613        0        
C1        C        0.375        0.796297        0.12913861313868613        0        
C1        C        0.4375        0.796297        0.12913861313868613        0        
C1        C        0.5        0.796297        0.12913861313868613        0        
C1        C        0.5625        0.796297        0.12913861313868613        0        
C1        C        0.625        0.796297        0.12913861313868613        0        
C1        C        0.6875        0.796297        0.12913861313868613        0        
C1        C        0.75        0.796297        0.12913861313868613        0        
C1        C        0.8125        0.796297        0.12913861313868613        0        
C1        C        0.875        0.796297        0.12913861313868613        0        
C1        C        0.9375        0.796297        0.12913861313868613        0        
C2        C        0.03125        0.851852        0.12913861313868613        0        
C2        C        0.09375        0.851852        0.12913861313868613        0        
C2        C        0.15625        0.851852        0.12913861313868613        0        
C2        C        0.21875        0.851852        0.12913861313868613        0        
C2        C        0.28125        0.851852        0.12913861313868613        0        
C2        C        0.34375        0.851852        0.12913861313868613        0        
C2        C        0.40625        0.851852        0.12913861313868613        0        
C2        C        0.46875        0.851852        0.12913861313868613        0        
C2        C        0.53125        0.851852        0.12913861313868613        0        
C2        C        0.59375        0.851852        0.12913861313868613        0        
C2        C        0.65625        0.851852        0.12913861313868613        0        
C2        C        0.71875        0.851852        0.12913861313868613        0        
C2        C        0.78125        0.851852        0.12913861313868613        0        
C2        C        0.84375        0.851852        0.12913861313868613        0        
C2        C        0.9062500000000001        0.851852        0.12913861313868613        0        
C2        C        0.9687500000000001        0.851852        0.12913861313868613        0        
C_FG        C        0.0        0.87037        0.12913861313868613        0.2        
C3        C        0.0625        0.87037        0.12913861313868613        0        
C_FG        C        0.125        0.87037        0.12913861313868613        0.2        
C3        C        0.1875        0.87037        0.12913861313868613        0        
C_FG        C        0.25        0.87037        0.12913861313868613        0.2        
C3        C        0.3125        0.87037        0.12913861313868613        0        
C_FG        C        0.375        0.87037        0.12913861313868613        0.2        
C3        C        0.4375        0.87037        0.12913861313868613        0        
C_FG        C        0.5        0.87037        0.12913861313868613        0.2        
C3        C        0.5625        0.87037        0.12913861313868613        0        
C_FG        C        0.625        0.87037        0.12913861313868613        0.2        
C3        C        0.6875        0.87037        0.12913861313868613        0        
C_FG        C        0.75        0.87037        0.12913861313868613        0.2        
C3        C        0.8125        0.87037        0.12913861313868613        0        
C_FG        C        0.875        0.87037        0.12913861313868613        0.2        
C3        C        0.9375        0.87037        0.12913861313868613        0        
C4        C        0.03125        0.814814        0.12913861313868613        0        
C4        C        0.09375        0.814814        0.12913861313868613        0        
C4        C        0.15625        0.814814        0.12913861313868613        0        
C4        C        0.21875        0.814814        0.12913861313868613        0        
C4        C        0.28125        0.814814        0.12913861313868613        0        
C4        C        0.34375        0.814814        0.12913861313868613        0        
C4        C        0.40625        0.814814        0.12913861313868613        0        
C4        C        0.46875        0.814814        0.12913861313868613        0        
C4        C        0.53125        0.814814        0.12913861313868613        0        
C4        C        0.59375        0.814814        0.12913861313868613        0        
C4        C        0.65625        0.814814        0.12913861313868613        0        
C4        C        0.71875        0.814814        0.12913861313868613        0        
C4        C        0.78125        0.814814        0.12913861313868613        0        
C4        C        0.84375        0.814814        0.12913861313868613        0        
C4        C        0.9062500000000001        0.814814        0.12913861313868613        0        
C4        C        0.9687500000000001        0.814814        0.12913861313868613        0        
C1        C        0.0        0.907408        0.12913861313868613        0        
C1        C        0.0625        0.907408        0.12913861313868613        0        
C1        C        0.125        0.907408        0.12913861313868613        0        
C1        C        0.1875        0.907408        0.12913861313868613        0        
C1        C        0.25        0.907408        0.12913861313868613        0        
C1        C        0.3125        0.907408        0.12913861313868613        0        
C1        C        0.375        0.907408        0.12913861313868613        0        
C1        C        0.4375        0.907408        0.12913861313868613        0        
C1        C        0.5        0.907408        0.12913861313868613        0        
C1        C        0.5625        0.907408        0.12913861313868613        0        
C1        C        0.625        0.907408        0.12913861313868613        0        
C1        C        0.6875        0.907408        0.12913861313868613        0        
C1        C        0.75        0.907408        0.12913861313868613        0        
C1        C        0.8125        0.907408        0.12913861313868613        0        
C1        C        0.875        0.907408        0.12913861313868613        0        
C1        C        0.9375        0.907408        0.12913861313868613        0        
C2        C        0.03125        0.962963        0.12913861313868613        0        
C2        C        0.09375        0.962963        0.12913861313868613        0        
C2        C        0.15625        0.962963        0.12913861313868613        0        
C2        C        0.21875        0.962963        0.12913861313868613        0        
C2        C        0.28125        0.962963        0.12913861313868613        0        
C2        C        0.34375        0.962963        0.12913861313868613        0        
C2        C        0.40625        0.962963        0.12913861313868613        0        
C2        C        0.46875        0.962963        0.12913861313868613        0        
C2        C        0.53125        0.962963        0.12913861313868613        0        
C2        C        0.59375        0.962963        0.12913861313868613        0        
C2        C        0.65625        0.962963        0.12913861313868613        0        
C2        C        0.71875        0.962963        0.12913861313868613        0        
C2        C        0.78125        0.962963        0.12913861313868613        0        
C2        C        0.84375        0.962963        0.12913861313868613        0        
C2        C        0.9062500000000001        0.962963        0.12913861313868613        0        
C2        C        0.9687500000000001        0.962963        0.12913861313868613        0        
C3        C        0.0        0.9814809999999999        0.12913861313868613        0        
C3        C        0.0625        0.9814809999999999        0.12913861313868613        0        
C3        C        0.125        0.9814809999999999        0.12913861313868613        0        
C3        C        0.1875        0.9814809999999999        0.12913861313868613        0        
C3        C        0.25        0.9814809999999999        0.12913861313868613        0        
C3        C        0.3125        0.9814809999999999        0.12913861313868613        0        
C3        C        0.375        0.9814809999999999        0.12913861313868613        0        
C3        C        0.4375        0.9814809999999999        0.12913861313868613        0        
C3        C        0.5        0.9814809999999999        0.12913861313868613        0        
C3        C        0.5625        0.9814809999999999        0.12913861313868613        0        
C3        C        0.625        0.9814809999999999        0.12913861313868613        0        
C3        C        0.6875        0.9814809999999999        0.12913861313868613        0        
C3        C        0.75        0.9814809999999999        0.12913861313868613        0        
C3        C        0.8125        0.9814809999999999        0.12913861313868613        0        
C3        C        0.875        0.9814809999999999        0.12913861313868613        0        
C3        C        0.9375        0.9814809999999999        0.12913861313868613        0        
C4        C        0.03125        0.925925        0.12913861313868613        0        
C4        C        0.09375        0.925925        0.12913861313868613        0        
C4        C        0.15625        0.925925        0.12913861313868613        0        
C4        C        0.21875        0.925925        0.12913861313868613        0        
C4        C        0.28125        0.925925        0.12913861313868613        0        
C4        C        0.34375        0.925925        0.12913861313868613        0        
C4        C        0.40625        0.925925        0.12913861313868613        0        
C4        C        0.46875        0.925925        0.12913861313868613        0        
C4        C        0.53125        0.925925        0.12913861313868613        0        
C4        C        0.59375        0.925925        0.12913861313868613        0        
C4        C        0.65625        0.925925        0.12913861313868613        0        
C4        C        0.71875        0.925925        0.12913861313868613        0        
C4        C        0.78125        0.925925        0.12913861313868613        0        
C4        C        0.84375        0.925925        0.12913861313868613        0        
C4        C        0.9062500000000001        0.925925        0.12913861313868613        0        
C4        C        0.9687500000000001        0.925925        0.12913861313868613        0        
C1        C        0.0        0.018519        0.3736641605839415        0        
C2        C        0.03125        0.074075        0.3736641605839415        0        
C3        C        0.0        0.092592        0.3736641605839415        0        
C4        C        0.03125        0.037037        0.3736641605839415        0        
C1        C        0.0        0.12963        0.3736641605839415        0        
C2        C        0.03125        0.185185        0.3736641605839415        0        
C3        C        0.0        0.203703        0.3736641605839415        0        
C4        C        0.03125        0.148148        0.3736641605839415        0        
C1        C        0.0        0.24074099999999998        0.3736641605839415        0        
C2        C        0.03125        0.296297        0.3736641605839415        0        
C3        C        0.0        0.314815        0.3736641605839415        0        
C4        C        0.03125        0.259259        0.3736641605839415        0        
C1        C        0.0        0.351852        0.3736641605839415        0        
C2        C        0.03125        0.407408        0.3736641605839415        0        
C3        C        0.0        0.425925        0.3736641605839415        0        
C4        C        0.03125        0.37037        0.3736641605839415        0        
C1        C        0.0        0.46296300000000007        0.3736641605839415        0        
C2        C        0.03125        0.518519        0.3736641605839415        0        
C3        C        0.0        0.537037        0.3736641605839415        0        
C4        C        0.03125        0.481481        0.3736641605839415        0        
C1        C        0.0        0.574075        0.3736641605839415        0        
C2        C        0.03125        0.62963        0.3736641605839415        0        
C3        C        0.0        0.648148        0.3736641605839415        0        
C4        C        0.03125        0.592592        0.3736641605839415        0        
C1        C        0.0625        0.018519        0.3736641605839415        0        
C2        C        0.09375        0.074075        0.3736641605839415        0        
C3        C        0.0625        0.092592        0.3736641605839415        0        
C4        C        0.09375        0.037037        0.3736641605839415        0        
C1        C        0.0625        0.12963        0.3736641605839415        0        
C2        C        0.09375        0.185185        0.3736641605839415        0        
C3        C        0.0625        0.203703        0.3736641605839415        0        
C4        C        0.09375        0.148148        0.3736641605839415        0        
C1        C        0.0625        0.24074099999999998        0.3736641605839415        0        
C2        C        0.09375        0.296297        0.3736641605839415        0        
C3        C        0.0625        0.314815        0.3736641605839415        0        
C4        C        0.09375        0.259259        0.3736641605839415        0        
C1        C        0.0625        0.351852        0.3736641605839415        0        
C2        C        0.09375        0.407408        0.3736641605839415        0        
C3        C        0.0625        0.425925        0.3736641605839415        0        
C4        C        0.09375        0.37037        0.3736641605839415        0        
C1        C        0.0625        0.46296300000000007        0.3736641605839415        0        
C2        C        0.09375        0.518519        0.3736641605839415        0        
C3        C        0.0625        0.537037        0.3736641605839415        0        
C4        C        0.09375        0.481481        0.3736641605839415        0        
C1        C        0.0625        0.574075        0.3736641605839415        0        
C2        C        0.09375        0.62963        0.3736641605839415        0        
C3        C        0.0625        0.648148        0.3736641605839415        0        
C4        C        0.09375        0.592592        0.3736641605839415        0        
C1        C        0.125        0.018519        0.3736641605839415        0        
C2        C        0.15625        0.074075        0.3736641605839415        0        
C3        C        0.125        0.092592        0.3736641605839415        0        
C4        C        0.15625        0.037037        0.3736641605839415        0        
C1        C        0.125        0.12963        0.3736641605839415        0        
C2        C        0.15625        0.185185        0.3736641605839415        0        
C3        C        0.125        0.203703        0.3736641605839415        0        
C4        C        0.15625        0.148148        0.3736641605839415        0        
C1        C        0.125        0.24074099999999998        0.3736641605839415        0        
C2        C        0.15625        0.296297        0.3736641605839415        0        
C3        C        0.125        0.314815        0.3736641605839415        0        
C4        C        0.15625        0.259259        0.3736641605839415        0        
C1        C        0.125        0.351852        0.3736641605839415        0        
C2        C        0.15625        0.407408        0.3736641605839415        0        
C3        C        0.125        0.425925        0.3736641605839415        0        
C4        C        0.15625        0.37037        0.3736641605839415        0        
C1        C        0.125        0.46296300000000007        0.3736641605839415        0        
C2        C        0.15625        0.518519        0.3736641605839415        0        
C3        C        0.125        0.537037        0.3736641605839415        0        
C4        C        0.15625        0.481481        0.3736641605839415        0        
C1        C        0.125        0.574075        0.3736641605839415        0        
C2        C        0.15625        0.62963        0.3736641605839415        0        
C3        C        0.125        0.648148        0.3736641605839415        0        
C4        C        0.15625        0.592592        0.3736641605839415        0        
C1        C        0.1875        0.018519        0.3736641605839415        0        
C2        C        0.21875        0.074075        0.3736641605839415        0        
C3        C        0.1875        0.092592        0.3736641605839415        0        
C4        C        0.21875        0.037037        0.3736641605839415        0        
C1        C        0.1875        0.12963        0.3736641605839415        0        
C2        C        0.21875        0.185185        0.3736641605839415        0        
C3        C        0.1875        0.203703        0.3736641605839415        0        
C4        C        0.21875        0.148148        0.3736641605839415        0        
C1        C        0.1875        0.24074099999999998        0.3736641605839415        0        
C2        C        0.21875        0.296297        0.3736641605839415        0        
C3        C        0.1875        0.314815        0.3736641605839415        0        
C4        C        0.21875        0.259259        0.3736641605839415        0        
C1        C        0.1875        0.351852        0.3736641605839415        0        
C2        C        0.21875        0.407408        0.3736641605839415        0        
C3        C        0.1875        0.425925        0.3736641605839415        0        
C4        C        0.21875        0.37037        0.3736641605839415        0        
C1        C        0.1875        0.46296300000000007        0.3736641605839415        0        
C2        C        0.21875        0.518519        0.3736641605839415        0        
C3        C        0.1875        0.537037        0.3736641605839415        0        
C4        C        0.21875        0.481481        0.3736641605839415        0        
C1        C        0.1875        0.574075        0.3736641605839415        0        
C2        C        0.21875        0.62963        0.3736641605839415        0        
C3        C        0.1875        0.648148        0.3736641605839415        0        
C4        C        0.21875        0.592592        0.3736641605839415        0        
C1        C        0.25        0.018519        0.3736641605839415        0        
C2        C        0.28125        0.074075        0.3736641605839415        0        
C3        C        0.25        0.092592        0.3736641605839415        0        
C4        C        0.28125        0.037037        0.3736641605839415        0        
C1        C        0.25        0.12963        0.3736641605839415        0        
C2        C        0.28125        0.185185        0.3736641605839415        0        
C3        C        0.25        0.203703        0.3736641605839415        0        
C4        C        0.28125        0.148148        0.3736641605839415        0        
C1        C        0.25        0.24074099999999998        0.3736641605839415        0        
C2        C        0.28125        0.296297        0.3736641605839415        0        
C3        C        0.25        0.314815        0.3736641605839415        0        
C4        C        0.28125        0.259259        0.3736641605839415        0        
C1        C        0.25        0.351852        0.3736641605839415        0        
C2        C        0.28125        0.407408        0.3736641605839415        0        
C3        C        0.25        0.425925        0.3736641605839415        0        
C4        C        0.28125        0.37037        0.3736641605839415        0        
C1        C        0.25        0.46296300000000007        0.3736641605839415        0        
C2        C        0.28125        0.518519        0.3736641605839415        0        
C3        C        0.25        0.537037        0.3736641605839415        0        
C4        C        0.28125        0.481481        0.3736641605839415        0        
C1        C        0.25        0.574075        0.3736641605839415        0        
C2        C        0.28125        0.62963        0.3736641605839415        0        
C3        C        0.25        0.648148        0.3736641605839415        0        
C4        C        0.28125        0.592592        0.3736641605839415        0        
C1        C        0.3125        0.018519        0.3736641605839415        0        
C2        C        0.34375        0.074075        0.3736641605839415        0        
C3        C        0.3125        0.092592        0.3736641605839415        0        
C4        C        0.34375        0.037037        0.3736641605839415        0        
C1        C        0.3125        0.12963        0.3736641605839415        0        
C2        C        0.34375        0.185185        0.3736641605839415        0        
C3        C        0.3125        0.203703        0.3736641605839415        0        
C4        C        0.34375        0.148148        0.3736641605839415        0        
C1        C        0.3125        0.24074099999999998        0.3736641605839415        0        
C2        C        0.34375        0.296297        0.3736641605839415        0        
C3        C        0.3125        0.314815        0.3736641605839415        0        
C4        C        0.34375        0.259259        0.3736641605839415        0        
C1        C        0.3125        0.351852        0.3736641605839415        0        
C2        C        0.34375        0.407408        0.3736641605839415        0        
C3        C        0.3125        0.425925        0.3736641605839415        0        
C4        C        0.34375        0.37037        0.3736641605839415        0        
C1        C        0.3125        0.46296300000000007        0.3736641605839415        0        
C2        C        0.34375        0.518519        0.3736641605839415        0        
C3        C        0.3125        0.537037        0.3736641605839415        0        
C4        C        0.34375        0.481481        0.3736641605839415        0        
C1        C        0.3125        0.574075        0.3736641605839415        0        
C2        C        0.34375        0.62963        0.3736641605839415        0        
C3        C        0.3125        0.648148        0.3736641605839415        0        
C4        C        0.34375        0.592592        0.3736641605839415        0        
C1        C        0.375        0.018519        0.3736641605839415        0        
C2        C        0.40625        0.074075        0.3736641605839415        0        
C3        C        0.375        0.092592        0.3736641605839415        0        
C4        C        0.40625        0.037037        0.3736641605839415        0        
C1        C        0.375        0.12963        0.3736641605839415        0        
C2        C        0.40625        0.185185        0.3736641605839415        0        
C3        C        0.375        0.203703        0.3736641605839415        0        
C4        C        0.40625        0.148148        0.3736641605839415        0        
C1        C        0.375        0.24074099999999998        0.3736641605839415        0        
C2        C        0.40625        0.296297        0.3736641605839415        0        
C3        C        0.375        0.314815        0.3736641605839415        0        
C4        C        0.40625        0.259259        0.3736641605839415        0        
C1        C        0.375        0.351852        0.3736641605839415        0        
C2        C        0.40625        0.407408        0.3736641605839415        0        
C3        C        0.375        0.425925        0.3736641605839415        0        
C4        C        0.40625        0.37037        0.3736641605839415        0        
C1        C        0.375        0.46296300000000007        0.3736641605839415        0        
C2        C        0.40625        0.518519        0.3736641605839415        0        
C3        C        0.375        0.537037        0.3736641605839415        0        
C4        C        0.40625        0.481481        0.3736641605839415        0        
C1        C        0.375        0.574075        0.3736641605839415        0        
C2        C        0.40625        0.62963        0.3736641605839415        0        
C3        C        0.375        0.648148        0.3736641605839415        0        
C4        C        0.40625        0.592592        0.3736641605839415        0        
C1        C        0.4375        0.018519        0.3736641605839415        0        
C2        C        0.46875        0.074075        0.3736641605839415        0        
C3        C        0.4375        0.092592        0.3736641605839415        0        
C4        C        0.46875        0.037037        0.3736641605839415        0        
C1        C        0.4375        0.12963        0.3736641605839415        0        
C2        C        0.46875        0.185185        0.3736641605839415        0        
C3        C        0.4375        0.203703        0.3736641605839415        0        
C4        C        0.46875        0.148148        0.3736641605839415        0        
C1        C        0.4375        0.24074099999999998        0.3736641605839415        0        
C2        C        0.46875        0.296297        0.3736641605839415        0        
C3        C        0.4375        0.314815        0.3736641605839415        0        
C4        C        0.46875        0.259259        0.3736641605839415        0        
C1        C        0.4375        0.351852        0.3736641605839415        0        
C2        C        0.46875        0.407408        0.3736641605839415        0        
C3        C        0.4375        0.425925        0.3736641605839415        0        
C4        C        0.46875        0.37037        0.3736641605839415        0        
C1        C        0.4375        0.46296300000000007        0.3736641605839415        0        
C2        C        0.46875        0.518519        0.3736641605839415        0        
C3        C        0.4375        0.537037        0.3736641605839415        0        
C4        C        0.46875        0.481481        0.3736641605839415        0        
C1        C        0.4375        0.574075        0.3736641605839415        0        
C2        C        0.46875        0.62963        0.3736641605839415        0        
C3        C        0.4375        0.648148        0.3736641605839415        0        
C4        C        0.46875        0.592592        0.3736641605839415        0        
C1        C        0.5        0.018519        0.3736641605839415        0        
C2        C        0.53125        0.074075        0.3736641605839415        0        
C3        C        0.5        0.092592        0.3736641605839415        0        
C4        C        0.53125        0.037037        0.3736641605839415        0        
C1        C        0.5        0.12963        0.3736641605839415        0        
C2        C        0.53125        0.185185        0.3736641605839415        0        
C3        C        0.5        0.203703        0.3736641605839415        0        
C4        C        0.53125        0.148148        0.3736641605839415        0        
C1        C        0.5        0.24074099999999998        0.3736641605839415        0        
C2        C        0.53125        0.296297        0.3736641605839415        0        
C3        C        0.5        0.314815        0.3736641605839415        0        
C4        C        0.53125        0.259259        0.3736641605839415        0        
C1        C        0.5        0.351852        0.3736641605839415        0        
C2        C        0.53125        0.407408        0.3736641605839415        0        
C3        C        0.5        0.425925        0.3736641605839415        0        
C4        C        0.53125        0.37037        0.3736641605839415        0        
C1        C        0.5        0.46296300000000007        0.3736641605839415        0        
C2        C        0.53125        0.518519        0.3736641605839415        0        
C3        C        0.5        0.537037        0.3736641605839415        0        
C4        C        0.53125        0.481481        0.3736641605839415        0        
C1        C        0.5        0.574075        0.3736641605839415        0        
C2        C        0.53125        0.62963        0.3736641605839415        0        
C3        C        0.5        0.648148        0.3736641605839415        0        
C4        C        0.53125        0.592592        0.3736641605839415        0        
C1        C        0.5625        0.018519        0.3736641605839415        0        
C2        C        0.59375        0.074075        0.3736641605839415        0        
C3        C        0.5625        0.092592        0.3736641605839415        0        
C4        C        0.59375        0.037037        0.3736641605839415        0        
C1        C        0.5625        0.12963        0.3736641605839415        0        
C2        C        0.59375        0.185185        0.3736641605839415        0        
C3        C        0.5625        0.203703        0.3736641605839415        0        
C4        C        0.59375        0.148148        0.3736641605839415        0        
C1        C        0.5625        0.24074099999999998        0.3736641605839415        0        
C2        C        0.59375        0.296297        0.3736641605839415        0        
C3        C        0.5625        0.314815        0.3736641605839415        0        
C4        C        0.59375        0.259259        0.3736641605839415        0        
C1        C        0.5625        0.351852        0.3736641605839415        0        
C2        C        0.59375        0.407408        0.3736641605839415        0        
C3        C        0.5625        0.425925        0.3736641605839415        0        
C4        C        0.59375        0.37037        0.3736641605839415        0        
C1        C        0.5625        0.46296300000000007        0.3736641605839415        0        
C2        C        0.59375        0.518519        0.3736641605839415        0        
C3        C        0.5625        0.537037        0.3736641605839415        0        
C4        C        0.59375        0.481481        0.3736641605839415        0        
C1        C        0.5625        0.574075        0.3736641605839415        0        
C2        C        0.59375        0.62963        0.3736641605839415        0        
C3        C        0.5625        0.648148        0.3736641605839415        0        
C4        C        0.59375        0.592592        0.3736641605839415        0        
C1        C        0.625        0.018519        0.3736641605839415        0        
C2        C        0.65625        0.074075        0.3736641605839415        0        
C3        C        0.625        0.092592        0.3736641605839415        0        
C4        C        0.65625        0.037037        0.3736641605839415        0        
C1        C        0.625        0.12963        0.3736641605839415        0        
C2        C        0.65625        0.185185        0.3736641605839415        0        
C3        C        0.625        0.203703        0.3736641605839415        0        
C4        C        0.65625        0.148148        0.3736641605839415        0        
C1        C        0.625        0.24074099999999998        0.3736641605839415        0        
C2        C        0.65625        0.296297        0.3736641605839415        0        
C3        C        0.625        0.314815        0.3736641605839415        0        
C4        C        0.65625        0.259259        0.3736641605839415        0        
C1        C        0.625        0.351852        0.3736641605839415        0        
C2        C        0.65625        0.407408        0.3736641605839415        0        
C3        C        0.625        0.425925        0.3736641605839415        0        
C4        C        0.65625        0.37037        0.3736641605839415        0        
C1        C        0.625        0.46296300000000007        0.3736641605839415        0        
C2        C        0.65625        0.518519        0.3736641605839415        0        
C3        C        0.625        0.537037        0.3736641605839415        0        
C4        C        0.65625        0.481481        0.3736641605839415        0        
C1        C        0.625        0.574075        0.3736641605839415        0        
C2        C        0.65625        0.62963        0.3736641605839415        0        
C3        C        0.625        0.648148        0.3736641605839415        0        
C4        C        0.65625        0.592592        0.3736641605839415        0        
C1        C        0.6875        0.018519        0.3736641605839415        0        
C2        C        0.71875        0.074075        0.3736641605839415        0        
C3        C        0.6875        0.092592        0.3736641605839415        0        
C4        C        0.71875        0.037037        0.3736641605839415        0        
C1        C        0.6875        0.12963        0.3736641605839415        0        
C2        C        0.71875        0.185185        0.3736641605839415        0        
C3        C        0.6875        0.203703        0.3736641605839415        0        
C4        C        0.71875        0.148148        0.3736641605839415        0        
C1        C        0.6875        0.24074099999999998        0.3736641605839415        0        
C2        C        0.71875        0.296297        0.3736641605839415        0        
C3        C        0.6875        0.314815        0.3736641605839415        0        
C4        C        0.71875        0.259259        0.3736641605839415        0        
C1        C        0.6875        0.351852        0.3736641605839415        0        
C2        C        0.71875        0.407408        0.3736641605839415        0        
C3        C        0.6875        0.425925        0.3736641605839415        0        
C4        C        0.71875        0.37037        0.3736641605839415        0        
C1        C        0.6875        0.46296300000000007        0.3736641605839415        0        
C2        C        0.71875        0.518519        0.3736641605839415        0        
C3        C        0.6875        0.537037        0.3736641605839415        0        
C4        C        0.71875        0.481481        0.3736641605839415        0        
C1        C        0.6875        0.574075        0.3736641605839415        0        
C2        C        0.71875        0.62963        0.3736641605839415        0        
C3        C        0.6875        0.648148        0.3736641605839415        0        
C4        C        0.71875        0.592592        0.3736641605839415        0        
C1        C        0.75        0.018519        0.3736641605839415        0        
C2        C        0.78125        0.074075        0.3736641605839415        0        
C3        C        0.75        0.092592        0.3736641605839415        0        
C4        C        0.78125        0.037037        0.3736641605839415        0        
C1        C        0.75        0.12963        0.3736641605839415        0        
C2        C        0.78125        0.185185        0.3736641605839415        0        
C3        C        0.75        0.203703        0.3736641605839415        0        
C4        C        0.78125        0.148148        0.3736641605839415        0        
C1        C        0.75        0.24074099999999998        0.3736641605839415        0        
C2        C        0.78125        0.296297        0.3736641605839415        0        
C3        C        0.75        0.314815        0.3736641605839415        0        
C4        C        0.78125        0.259259        0.3736641605839415        0        
C1        C        0.75        0.351852        0.3736641605839415        0        
C2        C        0.78125        0.407408        0.3736641605839415        0        
C3        C        0.75        0.425925        0.3736641605839415        0        
C4        C        0.78125        0.37037        0.3736641605839415        0        
C1        C        0.75        0.46296300000000007        0.3736641605839415        0        
C2        C        0.78125        0.518519        0.3736641605839415        0        
C3        C        0.75        0.537037        0.3736641605839415        0        
C4        C        0.78125        0.481481        0.3736641605839415        0        
C1        C        0.75        0.574075        0.3736641605839415        0        
C2        C        0.78125        0.62963        0.3736641605839415        0        
C3        C        0.75        0.648148        0.3736641605839415        0        
C4        C        0.78125        0.592592        0.3736641605839415        0        
C1        C        0.8125        0.018519        0.3736641605839415        0        
C2        C        0.84375        0.074075        0.3736641605839415        0        
C3        C        0.8125        0.092592        0.3736641605839415        0        
C4        C        0.84375        0.037037        0.3736641605839415        0        
C1        C        0.8125        0.12963        0.3736641605839415        0        
C2        C        0.84375        0.185185        0.3736641605839415        0        
C3        C        0.8125        0.203703        0.3736641605839415        0        
C4        C        0.84375        0.148148        0.3736641605839415        0        
C1        C        0.8125        0.24074099999999998        0.3736641605839415        0        
C2        C        0.84375        0.296297        0.3736641605839415        0        
C3        C        0.8125        0.314815        0.3736641605839415        0        
C4        C        0.84375        0.259259        0.3736641605839415        0        
C1        C        0.8125        0.351852        0.3736641605839415        0        
C2        C        0.84375        0.407408        0.3736641605839415        0        
C3        C        0.8125        0.425925        0.3736641605839415        0        
C4        C        0.84375        0.37037        0.3736641605839415        0        
C1        C        0.8125        0.46296300000000007        0.3736641605839415        0        
C2        C        0.84375        0.518519        0.3736641605839415        0        
C3        C        0.8125        0.537037        0.3736641605839415        0        
C4        C        0.84375        0.481481        0.3736641605839415        0        
C1        C        0.8125        0.574075        0.3736641605839415        0        
C2        C        0.84375        0.62963        0.3736641605839415        0        
C3        C        0.8125        0.648148        0.3736641605839415        0        
C4        C        0.84375        0.592592        0.3736641605839415        0        
C1        C        0.875        0.018519        0.3736641605839415        0        
C2        C        0.9062500000000001        0.074075        0.3736641605839415        0        
C3        C        0.875        0.092592        0.3736641605839415        0        
C4        C        0.9062500000000001        0.037037        0.3736641605839415        0        
C1        C        0.875        0.12963        0.3736641605839415        0        
C2        C        0.9062500000000001        0.185185        0.3736641605839415        0        
C3        C        0.875        0.203703        0.3736641605839415        0        
C4        C        0.9062500000000001        0.148148        0.3736641605839415        0        
C1        C        0.875        0.24074099999999998        0.3736641605839415        0        
C2        C        0.9062500000000001        0.296297        0.3736641605839415        0        
C3        C        0.875        0.314815        0.3736641605839415        0        
C4        C        0.9062500000000001        0.259259        0.3736641605839415        0        
C1        C        0.875        0.351852        0.3736641605839415        0        
C2        C        0.9062500000000001        0.407408        0.3736641605839415        0        
C3        C        0.875        0.425925        0.3736641605839415        0        
C4        C        0.9062500000000001        0.37037        0.3736641605839415        0        
C1        C        0.875        0.46296300000000007        0.3736641605839415        0        
C2        C        0.9062500000000001        0.518519        0.3736641605839415        0        
C3        C        0.875        0.537037        0.3736641605839415        0        
C4        C        0.9062500000000001        0.481481        0.3736641605839415        0        
C1        C        0.875        0.574075        0.3736641605839415        0        
C2        C        0.9062500000000001        0.62963        0.3736641605839415        0        
C3        C        0.875        0.648148        0.3736641605839415        0        
C4        C        0.9062500000000001        0.592592        0.3736641605839415        0        
C1        C        0.9375        0.018519        0.3736641605839415        0        
C2        C        0.9687500000000001        0.074075        0.3736641605839415        0        
C3        C        0.9375        0.092592        0.3736641605839415        0        
C4        C        0.9687500000000001        0.037037        0.3736641605839415        0        
C1        C        0.9375        0.12963        0.3736641605839415        0        
C2        C        0.9687500000000001        0.185185        0.3736641605839415        0        
C3        C        0.9375        0.203703        0.3736641605839415        0        
C4        C        0.9687500000000001        0.148148        0.3736641605839415        0        
C1        C        0.9375        0.24074099999999998        0.3736641605839415        0        
C2        C        0.9687500000000001        0.296297        0.3736641605839415        0        
C3        C        0.9375        0.314815        0.3736641605839415        0        
C4        C        0.9687500000000001        0.259259        0.3736641605839415        0        
C1        C        0.9375        0.351852        0.3736641605839415        0        
C2        C        0.9687500000000001        0.407408        0.3736641605839415        0        
C3        C        0.9375        0.425925        0.3736641605839415        0        
C4        C        0.9687500000000001        0.37037        0.3736641605839415        0        
C1        C        0.9375        0.46296300000000007        0.3736641605839415        0        
C2        C        0.9687500000000001        0.518519        0.3736641605839415        0        
C3        C        0.9375        0.537037        0.3736641605839415        0        
C4        C        0.9687500000000001        0.481481        0.3736641605839415        0        
C1        C        0.9375        0.574075        0.3736641605839415        0        
C2        C        0.9687500000000001        0.62963        0.3736641605839415        0        
C3        C        0.9375        0.648148        0.3736641605839415        0        
C4        C        0.9687500000000001        0.592592        0.3736641605839415        0        
C1        C        0.0        0.685186        0.3736641605839415        0        
C1        C        0.0625        0.685186        0.3736641605839415        0        
C1        C        0.125        0.685186        0.3736641605839415        0        
C1        C        0.1875        0.685186        0.3736641605839415        0        
C1        C        0.25        0.685186        0.3736641605839415        0        
C1        C        0.3125        0.685186        0.3736641605839415        0        
C1        C        0.375        0.685186        0.3736641605839415        0        
C1        C        0.4375        0.685186        0.3736641605839415        0        
C1        C        0.5        0.685186        0.3736641605839415        0        
C1        C        0.5625        0.685186        0.3736641605839415        0        
C1        C        0.625        0.685186        0.3736641605839415        0        
C1        C        0.6875        0.685186        0.3736641605839415        0        
C1        C        0.75        0.685186        0.3736641605839415        0        
C1        C        0.8125        0.685186        0.3736641605839415        0        
C1        C        0.875        0.685186        0.3736641605839415        0        
C1        C        0.9375        0.685186        0.3736641605839415        0        
C2        C        0.03125        0.740741        0.3736641605839415        0        
C2        C        0.09375        0.740741        0.3736641605839415        0        
C2        C        0.15625        0.740741        0.3736641605839415        0        
C2        C        0.21875        0.740741        0.3736641605839415        0        
C2        C        0.28125        0.740741        0.3736641605839415        0        
C2        C        0.34375        0.740741        0.3736641605839415        0        
C2        C        0.40625        0.740741        0.3736641605839415        0        
C2        C        0.46875        0.740741        0.3736641605839415        0        
C2        C        0.53125        0.740741        0.3736641605839415        0        
C2        C        0.59375        0.740741        0.3736641605839415        0        
C2        C        0.65625        0.740741        0.3736641605839415        0        
C2        C        0.71875        0.740741        0.3736641605839415        0        
C2        C        0.78125        0.740741        0.3736641605839415        0        
C2        C        0.84375        0.740741        0.3736641605839415        0        
C2        C        0.9062500000000001        0.740741        0.3736641605839415        0        
C2        C        0.9687500000000001        0.740741        0.3736641605839415        0        
C3        C        0.0        0.759259        0.3736641605839415        0        
C3        C        0.0625        0.759259        0.3736641605839415        0        
C3        C        0.125        0.759259        0.3736641605839415        0        
C3        C        0.1875        0.759259        0.3736641605839415        0        
C3        C        0.25        0.759259        0.3736641605839415        0        
C3        C        0.3125        0.759259        0.3736641605839415        0        
C3        C        0.375        0.759259        0.3736641605839415        0        
C3        C        0.4375        0.759259        0.3736641605839415        0        
C3        C        0.5        0.759259        0.3736641605839415        0        
C3        C        0.5625        0.759259        0.3736641605839415        0        
C3        C        0.625        0.759259        0.3736641605839415        0        
C3        C        0.6875        0.759259        0.3736641605839415        0        
C3        C        0.75        0.759259        0.3736641605839415        0        
C3        C        0.8125        0.759259        0.3736641605839415        0        
C3        C        0.875        0.759259        0.3736641605839415        0        
C3        C        0.9375        0.759259        0.3736641605839415        0        
C4        C        0.03125        0.703703        0.3736641605839415        0        
C4        C        0.09375        0.703703        0.3736641605839415        0        
C4        C        0.15625        0.703703        0.3736641605839415        0        
C4        C        0.21875        0.703703        0.3736641605839415        0        
C4        C        0.28125        0.703703        0.3736641605839415        0        
C4        C        0.34375        0.703703        0.3736641605839415        0        
C4        C        0.40625        0.703703        0.3736641605839415        0        
C4        C        0.46875        0.703703        0.3736641605839415        0        
C4        C        0.53125        0.703703        0.3736641605839415        0        
C4        C        0.59375        0.703703        0.3736641605839415        0        
C4        C        0.65625        0.703703        0.3736641605839415        0        
C4        C        0.71875        0.703703        0.3736641605839415        0        
C4        C        0.78125        0.703703        0.3736641605839415        0        
C4        C        0.84375        0.703703        0.3736641605839415        0        
C4        C        0.9062500000000001        0.703703        0.3736641605839415        0        
C4        C        0.9687500000000001        0.703703        0.3736641605839415        0        
C1        C        0.0        0.796297        0.3736641605839415        0        
C1        C        0.0625        0.796297        0.3736641605839415        0        
C1        C        0.125        0.796297        0.3736641605839415        0        
C1        C        0.1875        0.796297        0.3736641605839415        0        
C1        C        0.25        0.796297        0.3736641605839415        0        
C1        C        0.3125        0.796297        0.3736641605839415        0        
C1        C        0.375        0.796297        0.3736641605839415        0        
C1        C        0.4375        0.796297        0.3736641605839415        0        
C1        C        0.5        0.796297        0.3736641605839415        0        
C1        C        0.5625        0.796297        0.3736641605839415        0        
C1        C        0.625        0.796297        0.3736641605839415        0        
C1        C        0.6875        0.796297        0.3736641605839415        0        
C1        C        0.75        0.796297        0.3736641605839415        0        
C1        C        0.8125        0.796297        0.3736641605839415        0        
C1        C        0.875        0.796297        0.3736641605839415        0        
C1        C        0.9375        0.796297        0.3736641605839415        0        
C2        C        0.03125        0.851852        0.3736641605839415        0        
C2        C        0.09375        0.851852        0.3736641605839415        0        
C2        C        0.15625        0.851852        0.3736641605839415        0        
C2        C        0.21875        0.851852        0.3736641605839415        0        
C2        C        0.28125        0.851852        0.3736641605839415        0        
C2        C        0.34375        0.851852        0.3736641605839415        0        
C2        C        0.40625        0.851852        0.3736641605839415        0        
C2        C        0.46875        0.851852        0.3736641605839415        0        
C2        C        0.53125        0.851852        0.3736641605839415        0        
C2        C        0.59375        0.851852        0.3736641605839415        0        
C2        C        0.65625        0.851852        0.3736641605839415        0        
C2        C        0.71875        0.851852        0.3736641605839415        0        
C2        C        0.78125        0.851852        0.3736641605839415        0        
C2        C        0.84375        0.851852        0.3736641605839415        0        
C2        C        0.9062500000000001        0.851852        0.3736641605839415        0        
C2        C        0.9687500000000001        0.851852        0.3736641605839415        0        
C3        C        0.0        0.87037        0.3736641605839415        0        
C3        C        0.0625        0.87037        0.3736641605839415        0        
C3        C        0.125        0.87037        0.3736641605839415        0        
C3        C        0.1875        0.87037        0.3736641605839415        0        
C3        C        0.25        0.87037        0.3736641605839415        0        
C3        C        0.3125        0.87037        0.3736641605839415        0        
C3        C        0.375        0.87037        0.3736641605839415        0        
C3        C        0.4375        0.87037        0.3736641605839415        0        
C3        C        0.5        0.87037        0.3736641605839415        0        
C3        C        0.5625        0.87037        0.3736641605839415        0        
C3        C        0.625        0.87037        0.3736641605839415        0        
C3        C        0.6875        0.87037        0.3736641605839415        0        
C3        C        0.75        0.87037        0.3736641605839415        0        
C3        C        0.8125        0.87037        0.3736641605839415        0        
C3        C        0.875        0.87037        0.3736641605839415        0        
C3        C        0.9375        0.87037        0.3736641605839415        0        
C4        C        0.03125        0.814814        0.3736641605839415        0        
C4        C        0.09375        0.814814        0.3736641605839415        0        
C4        C        0.15625        0.814814        0.3736641605839415        0        
C4        C        0.21875        0.814814        0.3736641605839415        0        
C4        C        0.28125        0.814814        0.3736641605839415        0        
C4        C        0.34375        0.814814        0.3736641605839415        0        
C4        C        0.40625        0.814814        0.3736641605839415        0        
C4        C        0.46875        0.814814        0.3736641605839415        0        
C4        C        0.53125        0.814814        0.3736641605839415        0        
C4        C        0.59375        0.814814        0.3736641605839415        0        
C4        C        0.65625        0.814814        0.3736641605839415        0        
C4        C        0.71875        0.814814        0.3736641605839415        0        
C4        C        0.78125        0.814814        0.3736641605839415        0        
C4        C        0.84375        0.814814        0.3736641605839415        0        
C4        C        0.9062500000000001        0.814814        0.3736641605839415        0        
C4        C        0.9687500000000001        0.814814        0.3736641605839415        0        
C1        C        0.0        0.907408        0.3736641605839415        0        
C1        C        0.0625        0.907408        0.3736641605839415        0        
C1        C        0.125        0.907408        0.3736641605839415        0        
C1        C        0.1875        0.907408        0.3736641605839415        0        
C1        C        0.25        0.907408        0.3736641605839415        0        
C1        C        0.3125        0.907408        0.3736641605839415        0        
C1        C        0.375        0.907408        0.3736641605839415        0        
C1        C        0.4375        0.907408        0.3736641605839415        0        
C1        C        0.5        0.907408        0.3736641605839415        0        
C1        C        0.5625        0.907408        0.3736641605839415        0        
C1        C        0.625        0.907408        0.3736641605839415        0        
C1        C        0.6875        0.907408        0.3736641605839415        0        
C1        C        0.75        0.907408        0.3736641605839415        0        
C1        C        0.8125        0.907408        0.3736641605839415        0        
C1        C        0.875        0.907408        0.3736641605839415        0        
C1        C        0.9375        0.907408        0.3736641605839415        0        
C2        C        0.03125        0.962963        0.3736641605839415        0        
C2        C        0.09375        0.962963        0.3736641605839415        0        
C2        C        0.15625        0.962963        0.3736641605839415        0        
C2        C        0.21875        0.962963        0.3736641605839415        0        
C2        C        0.28125        0.962963        0.3736641605839415        0        
C2        C        0.34375        0.962963        0.3736641605839415        0        
C2        C        0.40625        0.962963        0.3736641605839415        0        
C2        C        0.46875        0.962963        0.3736641605839415        0        
C2        C        0.53125        0.962963        0.3736641605839415        0        
C2        C        0.59375        0.962963        0.3736641605839415        0        
C2        C        0.65625        0.962963        0.3736641605839415        0        
C2        C        0.71875        0.962963        0.3736641605839415        0        
C2        C        0.78125        0.962963        0.3736641605839415        0        
C2        C        0.84375        0.962963        0.3736641605839415        0        
C2        C        0.9062500000000001        0.962963        0.3736641605839415        0        
C2        C        0.9687500000000001        0.962963        0.3736641605839415        0        
C3        C        0.0        0.9814809999999999        0.3736641605839415        0        
C3        C        0.0625        0.9814809999999999        0.3736641605839415        0        
C3        C        0.125        0.9814809999999999        0.3736641605839415        0        
C3        C        0.1875        0.9814809999999999        0.3736641605839415        0        
C3        C        0.25        0.9814809999999999        0.3736641605839415        0        
C3        C        0.3125        0.9814809999999999        0.3736641605839415        0        
C3        C        0.375        0.9814809999999999        0.3736641605839415        0        
C3        C        0.4375        0.9814809999999999        0.3736641605839415        0        
C3        C        0.5        0.9814809999999999        0.3736641605839415        0        
C3        C        0.5625        0.9814809999999999        0.3736641605839415        0        
C3        C        0.625        0.9814809999999999        0.3736641605839415        0        
C3        C        0.6875        0.9814809999999999        0.3736641605839415        0        
C3        C        0.75        0.9814809999999999        0.3736641605839415        0        
C3        C        0.8125        0.9814809999999999        0.3736641605839415        0        
C3        C        0.875        0.9814809999999999        0.3736641605839415        0        
C3        C        0.9375        0.9814809999999999        0.3736641605839415        0        
C4        C        0.03125        0.925925        0.3736641605839415        0        
C4        C        0.09375        0.925925        0.3736641605839415        0        
C4        C        0.15625        0.925925        0.3736641605839415        0        
C4        C        0.21875        0.925925        0.3736641605839415        0        
C4        C        0.28125        0.925925        0.3736641605839415        0        
C4        C        0.34375        0.925925        0.3736641605839415        0        
C4        C        0.40625        0.925925        0.3736641605839415        0        
C4        C        0.46875        0.925925        0.3736641605839415        0        
C4        C        0.53125        0.925925        0.3736641605839415        0        
C4        C        0.59375        0.925925        0.3736641605839415        0        
C4        C        0.65625        0.925925        0.3736641605839415        0        
C4        C        0.71875        0.925925        0.3736641605839415        0        
C4        C        0.78125        0.925925        0.3736641605839415        0        
C4        C        0.84375        0.925925        0.3736641605839415        0        
C4        C        0.9062500000000001        0.925925        0.3736641605839415        0        
C4        C        0.9687500000000001        0.925925        0.3736641605839415        0        
C_FG        C        0.0        0.018519        0.618189708029197        0.2        
C2        C        0.03125        0.074075        0.618189708029197        0        
C3        C        0.0        0.092592        0.618189708029197        0        
C4        C        0.03125        0.037037        0.618189708029197        0        
C1        C        0.0        0.12963        0.618189708029197        0        
C2        C        0.03125        0.185185        0.618189708029197        0        
C_FG        C        0.0        0.203703        0.618189708029197        0.2        
C4        C        0.03125        0.148148        0.618189708029197        0        
C1        C        0.0        0.24074099999999998        0.618189708029197        0        
C2        C        0.03125        0.296297        0.618189708029197        0        
C3        C        0.0        0.314815        0.618189708029197        0        
C4        C        0.03125        0.259259        0.618189708029197        0        
C_FG        C        0.0        0.351852        0.618189708029197        0.2        
C2        C        0.03125        0.407408        0.618189708029197        0        
C3        C        0.0        0.425925        0.618189708029197        0        
C4        C        0.03125        0.37037        0.618189708029197        0        
C1        C        0.0        0.46296300000000007        0.618189708029197        0        
C2        C        0.03125        0.518519        0.618189708029197        0        
C_FG        C        0.0        0.537037        0.618189708029197        0.2        
C4        C        0.03125        0.481481        0.618189708029197        0        
C1        C        0.0        0.574075        0.618189708029197        0        
C2        C        0.03125        0.62963        0.618189708029197        0        
C3        C        0.0        0.648148        0.618189708029197        0        
C4        C        0.03125        0.592592        0.618189708029197        0        
C1        C        0.0625        0.018519        0.618189708029197        0        
C2        C        0.09375        0.074075        0.618189708029197        0        
C3        C        0.0625        0.092592        0.618189708029197        0        
C4        C        0.09375        0.037037        0.618189708029197        0        
C1        C        0.0625        0.12963        0.618189708029197        0        
C2        C        0.09375        0.185185        0.618189708029197        0        
C3        C        0.0625        0.203703        0.618189708029197        0        
C4        C        0.09375        0.148148        0.618189708029197        0        
C1        C        0.0625        0.24074099999999998        0.618189708029197        0        
C2        C        0.09375        0.296297        0.618189708029197        0        
C3        C        0.0625        0.314815        0.618189708029197        0        
C4        C        0.09375        0.259259        0.618189708029197        0        
C1        C        0.0625        0.351852        0.618189708029197        0        
C2        C        0.09375        0.407408        0.618189708029197        0        
C3        C        0.0625        0.425925        0.618189708029197        0        
C4        C        0.09375        0.37037        0.618189708029197        0        
C1        C        0.0625        0.46296300000000007        0.618189708029197        0        
C2        C        0.09375        0.518519        0.618189708029197        0        
C3        C        0.0625        0.537037        0.618189708029197        0        
C4        C        0.09375        0.481481        0.618189708029197        0        
C1        C        0.0625        0.574075        0.618189708029197        0        
C2        C        0.09375        0.62963        0.618189708029197        0        
C3        C        0.0625        0.648148        0.618189708029197        0        
C4        C        0.09375        0.592592        0.618189708029197        0        
C_FG        C        0.125        0.018519        0.618189708029197        0.2        
C2        C        0.15625        0.074075        0.618189708029197        0        
C3        C        0.125        0.092592        0.618189708029197        0        
C4        C        0.15625        0.037037        0.618189708029197        0        
C1        C        0.125        0.12963        0.618189708029197        0        
C2        C        0.15625        0.185185        0.618189708029197        0        
C_FG        C        0.125        0.203703        0.618189708029197        0.2        
C4        C        0.15625        0.148148        0.618189708029197        0        
C1        C        0.125        0.24074099999999998        0.618189708029197        0        
C2        C        0.15625        0.296297        0.618189708029197        0        
C3        C        0.125        0.314815        0.618189708029197        0        
C4        C        0.15625        0.259259        0.618189708029197        0        
C_FG        C        0.125        0.351852        0.618189708029197        0.2        
C2        C        0.15625        0.407408        0.618189708029197        0        
C3        C        0.125        0.425925        0.618189708029197        0        
C4        C        0.15625        0.37037        0.618189708029197        0        
C1        C        0.125        0.46296300000000007        0.618189708029197        0        
C2        C        0.15625        0.518519        0.618189708029197        0        
C_FG        C        0.125        0.537037        0.618189708029197        0.2        
C4        C        0.15625        0.481481        0.618189708029197        0        
C1        C        0.125        0.574075        0.618189708029197        0        
C2        C        0.15625        0.62963        0.618189708029197        0        
C3        C        0.125        0.648148        0.618189708029197        0        
C4        C        0.15625        0.592592        0.618189708029197        0        
C1        C        0.1875        0.018519        0.618189708029197        0        
C2        C        0.21875        0.074075        0.618189708029197        0        
C3        C        0.1875        0.092592        0.618189708029197        0        
C4        C        0.21875        0.037037        0.618189708029197        0        
C1        C        0.1875        0.12963        0.618189708029197        0        
C2        C        0.21875        0.185185        0.618189708029197        0        
C3        C        0.1875        0.203703        0.618189708029197        0        
C4        C        0.21875        0.148148        0.618189708029197        0        
C1        C        0.1875        0.24074099999999998        0.618189708029197        0        
C2        C        0.21875        0.296297        0.618189708029197        0        
C3        C        0.1875        0.314815        0.618189708029197        0        
C4        C        0.21875        0.259259        0.618189708029197        0        
C1        C        0.1875        0.351852        0.618189708029197        0        
C2        C        0.21875        0.407408        0.618189708029197        0        
C3        C        0.1875        0.425925        0.618189708029197        0        
C4        C        0.21875        0.37037        0.618189708029197        0        
C1        C        0.1875        0.46296300000000007        0.618189708029197        0        
C2        C        0.21875        0.518519        0.618189708029197        0        
C3        C        0.1875        0.537037        0.618189708029197        0        
C4        C        0.21875        0.481481        0.618189708029197        0        
C1        C        0.1875        0.574075        0.618189708029197        0        
C2        C        0.21875        0.62963        0.618189708029197        0        
C3        C        0.1875        0.648148        0.618189708029197        0        
C4        C        0.21875        0.592592        0.618189708029197        0        
C_FG        C        0.25        0.018519        0.618189708029197        0.2        
C2        C        0.28125        0.074075        0.618189708029197        0        
C3        C        0.25        0.092592        0.618189708029197        0        
C4        C        0.28125        0.037037        0.618189708029197        0        
C1        C        0.25        0.12963        0.618189708029197        0        
C2        C        0.28125        0.185185        0.618189708029197        0        
C_FG        C        0.25        0.203703        0.618189708029197        0.2        
C4        C        0.28125        0.148148        0.618189708029197        0        
C1        C        0.25        0.24074099999999998        0.618189708029197        0        
C2        C        0.28125        0.296297        0.618189708029197        0        
C3        C        0.25        0.314815        0.618189708029197        0        
C4        C        0.28125        0.259259        0.618189708029197        0        
C_FG        C        0.25        0.351852        0.618189708029197        0.2        
C2        C        0.28125        0.407408        0.618189708029197        0        
C3        C        0.25        0.425925        0.618189708029197        0        
C4        C        0.28125        0.37037        0.618189708029197        0        
C1        C        0.25        0.46296300000000007        0.618189708029197        0        
C2        C        0.28125        0.518519        0.618189708029197        0        
C_FG        C        0.25        0.537037        0.618189708029197        0.2        
C4        C        0.28125        0.481481        0.618189708029197        0        
C1        C        0.25        0.574075        0.618189708029197        0        
C2        C        0.28125        0.62963        0.618189708029197        0        
C3        C        0.25        0.648148        0.618189708029197        0        
C4        C        0.28125        0.592592        0.618189708029197        0        
C1        C        0.3125        0.018519        0.618189708029197        0        
C2        C        0.34375        0.074075        0.618189708029197        0        
C3        C        0.3125        0.092592        0.618189708029197        0        
C4        C        0.34375        0.037037        0.618189708029197        0        
C1        C        0.3125        0.12963        0.618189708029197        0        
C2        C        0.34375        0.185185        0.618189708029197        0        
C3        C        0.3125        0.203703        0.618189708029197        0        
C4        C        0.34375        0.148148        0.618189708029197        0        
C1        C        0.3125        0.24074099999999998        0.618189708029197        0        
C2        C        0.34375        0.296297        0.618189708029197        0        
C3        C        0.3125        0.314815        0.618189708029197        0        
C4        C        0.34375        0.259259        0.618189708029197        0        
C1        C        0.3125        0.351852        0.618189708029197        0        
C2        C        0.34375        0.407408        0.618189708029197        0        
C3        C        0.3125        0.425925        0.618189708029197        0        
C4        C        0.34375        0.37037        0.618189708029197        0        
C1        C        0.3125        0.46296300000000007        0.618189708029197        0        
C2        C        0.34375        0.518519        0.618189708029197        0        
C3        C        0.3125        0.537037        0.618189708029197        0        
C4        C        0.34375        0.481481        0.618189708029197        0        
C1        C        0.3125        0.574075        0.618189708029197        0        
C2        C        0.34375        0.62963        0.618189708029197        0        
C3        C        0.3125        0.648148        0.618189708029197        0        
C4        C        0.34375        0.592592        0.618189708029197        0        
C_FG        C        0.375        0.018519        0.618189708029197        0.2        
C2        C        0.40625        0.074075        0.618189708029197        0        
C3        C        0.375        0.092592        0.618189708029197        0        
C4        C        0.40625        0.037037        0.618189708029197        0        
C1        C        0.375        0.12963        0.618189708029197        0        
C2        C        0.40625        0.185185        0.618189708029197        0        
C_FG        C        0.375        0.203703        0.618189708029197        0.2        
C4        C        0.40625        0.148148        0.618189708029197        0        
C1        C        0.375        0.24074099999999998        0.618189708029197        0        
C2        C        0.40625        0.296297        0.618189708029197        0        
C3        C        0.375        0.314815        0.618189708029197        0        
C4        C        0.40625        0.259259        0.618189708029197        0        
C_FG        C        0.375        0.351852        0.618189708029197        0.2        
C2        C        0.40625        0.407408        0.618189708029197        0        
C3        C        0.375        0.425925        0.618189708029197        0        
C4        C        0.40625        0.37037        0.618189708029197        0        
C1        C        0.375        0.46296300000000007        0.618189708029197        0        
C2        C        0.40625        0.518519        0.618189708029197        0        
C_FG        C        0.375        0.537037        0.618189708029197        0.2        
C4        C        0.40625        0.481481        0.618189708029197        0        
C1        C        0.375        0.574075        0.618189708029197        0        
C2        C        0.40625        0.62963        0.618189708029197        0        
C3        C        0.375        0.648148        0.618189708029197        0        
C4        C        0.40625        0.592592        0.618189708029197        0        
C1        C        0.4375        0.018519        0.618189708029197        0        
C2        C        0.46875        0.074075        0.618189708029197        0        
C3        C        0.4375        0.092592        0.618189708029197        0        
C4        C        0.46875        0.037037        0.618189708029197        0        
C1        C        0.4375        0.12963        0.618189708029197        0        
C2        C        0.46875        0.185185        0.618189708029197        0        
C3        C        0.4375        0.203703        0.618189708029197        0        
C4        C        0.46875        0.148148        0.618189708029197        0        
C1        C        0.4375        0.24074099999999998        0.618189708029197        0        
C2        C        0.46875        0.296297        0.618189708029197        0        
C3        C        0.4375        0.314815        0.618189708029197        0        
C4        C        0.46875        0.259259        0.618189708029197        0        
C1        C        0.4375        0.351852        0.618189708029197        0        
C2        C        0.46875        0.407408        0.618189708029197        0        
C3        C        0.4375        0.425925        0.618189708029197        0        
C4        C        0.46875        0.37037        0.618189708029197        0        
C1        C        0.4375        0.46296300000000007        0.618189708029197        0        
C2        C        0.46875        0.518519        0.618189708029197        0        
C3        C        0.4375        0.537037        0.618189708029197        0        
C4        C        0.46875        0.481481        0.618189708029197        0        
C1        C        0.4375        0.574075        0.618189708029197        0        
C2        C        0.46875        0.62963        0.618189708029197        0        
C3        C        0.4375        0.648148        0.618189708029197        0        
C4        C        0.46875        0.592592        0.618189708029197        0        
C_FG        C        0.5        0.018519        0.618189708029197        0.2        
C2        C        0.53125        0.074075        0.618189708029197        0        
C3        C        0.5        0.092592        0.618189708029197        0        
C4        C        0.53125        0.037037        0.618189708029197        0        
C1        C        0.5        0.12963        0.618189708029197        0        
C2        C        0.53125        0.185185        0.618189708029197        0        
C_FG        C        0.5        0.203703        0.618189708029197        0.2        
C4        C        0.53125        0.148148        0.618189708029197        0        
C1        C        0.5        0.24074099999999998        0.618189708029197        0        
C2        C        0.53125        0.296297        0.618189708029197        0        
C3        C        0.5        0.314815        0.618189708029197        0        
C4        C        0.53125        0.259259        0.618189708029197        0        
C_FG        C        0.5        0.351852        0.618189708029197        0.2        
C2        C        0.53125        0.407408        0.618189708029197        0        
C3        C        0.5        0.425925        0.618189708029197        0        
C4        C        0.53125        0.37037        0.618189708029197        0        
C1        C        0.5        0.46296300000000007        0.618189708029197        0        
C2        C        0.53125        0.518519        0.618189708029197        0        
C_FG        C        0.5        0.537037        0.618189708029197        0.2        
C4        C        0.53125        0.481481        0.618189708029197        0        
C1        C        0.5        0.574075        0.618189708029197        0        
C2        C        0.53125        0.62963        0.618189708029197        0        
C3        C        0.5        0.648148        0.618189708029197        0        
C4        C        0.53125        0.592592        0.618189708029197        0        
C1        C        0.5625        0.018519        0.618189708029197        0        
C2        C        0.59375        0.074075        0.618189708029197        0        
C3        C        0.5625        0.092592        0.618189708029197        0        
C4        C        0.59375        0.037037        0.618189708029197        0        
C1        C        0.5625        0.12963        0.618189708029197        0        
C2        C        0.59375        0.185185        0.618189708029197        0        
C3        C        0.5625        0.203703        0.618189708029197        0        
C4        C        0.59375        0.148148        0.618189708029197        0        
C1        C        0.5625        0.24074099999999998        0.618189708029197        0        
C2        C        0.59375        0.296297        0.618189708029197        0        
C3        C        0.5625        0.314815        0.618189708029197        0        
C4        C        0.59375        0.259259        0.618189708029197        0        
C1        C        0.5625        0.351852        0.618189708029197        0        
C2        C        0.59375        0.407408        0.618189708029197        0        
C3        C        0.5625        0.425925        0.618189708029197        0        
C4        C        0.59375        0.37037        0.618189708029197        0        
C1        C        0.5625        0.46296300000000007        0.618189708029197        0        
C2        C        0.59375        0.518519        0.618189708029197        0        
C3        C        0.5625        0.537037        0.618189708029197        0        
C4        C        0.59375        0.481481        0.618189708029197        0        
C1        C        0.5625        0.574075        0.618189708029197        0        
C2        C        0.59375        0.62963        0.618189708029197        0        
C3        C        0.5625        0.648148        0.618189708029197        0        
C4        C        0.59375        0.592592        0.618189708029197        0        
C_FG        C        0.625        0.018519        0.618189708029197        0.2        
C2        C        0.65625        0.074075        0.618189708029197        0        
C3        C        0.625        0.092592        0.618189708029197        0        
C4        C        0.65625        0.037037        0.618189708029197        0        
C1        C        0.625        0.12963        0.618189708029197        0        
C2        C        0.65625        0.185185        0.618189708029197        0        
C_FG        C        0.625        0.203703        0.618189708029197        0.2        
C4        C        0.65625        0.148148        0.618189708029197        0        
C1        C        0.625        0.24074099999999998        0.618189708029197        0        
C2        C        0.65625        0.296297        0.618189708029197        0        
C3        C        0.625        0.314815        0.618189708029197        0        
C4        C        0.65625        0.259259        0.618189708029197        0        
C_FG        C        0.625        0.351852        0.618189708029197        0.2        
C2        C        0.65625        0.407408        0.618189708029197        0        
C3        C        0.625        0.425925        0.618189708029197        0        
C4        C        0.65625        0.37037        0.618189708029197        0        
C1        C        0.625        0.46296300000000007        0.618189708029197        0        
C2        C        0.65625        0.518519        0.618189708029197        0        
C_FG        C        0.625        0.537037        0.618189708029197        0.2        
C4        C        0.65625        0.481481        0.618189708029197        0        
C1        C        0.625        0.574075        0.618189708029197        0        
C2        C        0.65625        0.62963        0.618189708029197        0        
C3        C        0.625        0.648148        0.618189708029197        0        
C4        C        0.65625        0.592592        0.618189708029197        0        
C1        C        0.6875        0.018519        0.618189708029197        0        
C2        C        0.71875        0.074075        0.618189708029197        0        
C3        C        0.6875        0.092592        0.618189708029197        0        
C4        C        0.71875        0.037037        0.618189708029197        0        
C1        C        0.6875        0.12963        0.618189708029197        0        
C2        C        0.71875        0.185185        0.618189708029197        0        
C3        C        0.6875        0.203703        0.618189708029197        0        
C4        C        0.71875        0.148148        0.618189708029197        0        
C1        C        0.6875        0.24074099999999998        0.618189708029197        0        
C2        C        0.71875        0.296297        0.618189708029197        0        
C3        C        0.6875        0.314815        0.618189708029197        0        
C4        C        0.71875        0.259259        0.618189708029197        0        
C1        C        0.6875        0.351852        0.618189708029197        0        
C2        C        0.71875        0.407408        0.618189708029197        0        
C3        C        0.6875        0.425925        0.618189708029197        0        
C4        C        0.71875        0.37037        0.618189708029197        0        
C1        C        0.6875        0.46296300000000007        0.618189708029197        0        
C2        C        0.71875        0.518519        0.618189708029197        0        
C3        C        0.6875        0.537037        0.618189708029197        0        
C4        C        0.71875        0.481481        0.618189708029197        0        
C1        C        0.6875        0.574075        0.618189708029197        0        
C2        C        0.71875        0.62963        0.618189708029197        0        
C3        C        0.6875        0.648148        0.618189708029197        0        
C4        C        0.71875        0.592592        0.618189708029197        0        
C_FG        C        0.75        0.018519        0.618189708029197        0.2        
C2        C        0.78125        0.074075        0.618189708029197        0        
C3        C        0.75        0.092592        0.618189708029197        0        
C4        C        0.78125        0.037037        0.618189708029197        0        
C1        C        0.75        0.12963        0.618189708029197        0        
C2        C        0.78125        0.185185        0.618189708029197        0        
C_FG        C        0.75        0.203703        0.618189708029197        0.2        
C4        C        0.78125        0.148148        0.618189708029197        0        
C1        C        0.75        0.24074099999999998        0.618189708029197        0        
C2        C        0.78125        0.296297        0.618189708029197        0        
C3        C        0.75        0.314815        0.618189708029197        0        
C4        C        0.78125        0.259259        0.618189708029197        0        
C_FG        C        0.75        0.351852        0.618189708029197        0.2        
C2        C        0.78125        0.407408        0.618189708029197        0        
C3        C        0.75        0.425925        0.618189708029197        0        
C4        C        0.78125        0.37037        0.618189708029197        0        
C1        C        0.75        0.46296300000000007        0.618189708029197        0        
C2        C        0.78125        0.518519        0.618189708029197        0        
C_FG        C        0.75        0.537037        0.618189708029197        0.2        
C4        C        0.78125        0.481481        0.618189708029197        0        
C1        C        0.75        0.574075        0.618189708029197        0        
C2        C        0.78125        0.62963        0.618189708029197        0        
C3        C        0.75        0.648148        0.618189708029197        0        
C4        C        0.78125        0.592592        0.618189708029197        0        
C1        C        0.8125        0.018519        0.618189708029197        0        
C2        C        0.84375        0.074075        0.618189708029197        0        
C3        C        0.8125        0.092592        0.618189708029197        0        
C4        C        0.84375        0.037037        0.618189708029197        0        
C1        C        0.8125        0.12963        0.618189708029197        0        
C2        C        0.84375        0.185185        0.618189708029197        0        
C3        C        0.8125        0.203703        0.618189708029197        0        
C4        C        0.84375        0.148148        0.618189708029197        0        
C1        C        0.8125        0.24074099999999998        0.618189708029197        0        
C2        C        0.84375        0.296297        0.618189708029197        0        
C3        C        0.8125        0.314815        0.618189708029197        0        
C4        C        0.84375        0.259259        0.618189708029197        0        
C1        C        0.8125        0.351852        0.618189708029197        0        
C2        C        0.84375        0.407408        0.618189708029197        0        
C3        C        0.8125        0.425925        0.618189708029197        0        
C4        C        0.84375        0.37037        0.618189708029197        0        
C1        C        0.8125        0.46296300000000007        0.618189708029197        0        
C2        C        0.84375        0.518519        0.618189708029197        0        
C3        C        0.8125        0.537037        0.618189708029197        0        
C4        C        0.84375        0.481481        0.618189708029197        0        
C1        C        0.8125        0.574075        0.618189708029197        0        
C2        C        0.84375        0.62963        0.618189708029197        0        
C3        C        0.8125        0.648148        0.618189708029197        0        
C4        C        0.84375        0.592592        0.618189708029197        0        
C_FG        C        0.875        0.018519        0.618189708029197        0.2        
C2        C        0.9062500000000001        0.074075        0.618189708029197        0        
C3        C        0.875        0.092592        0.618189708029197        0        
C4        C        0.9062500000000001        0.037037        0.618189708029197        0        
C1        C        0.875        0.12963        0.618189708029197        0        
C2        C        0.9062500000000001        0.185185        0.618189708029197        0        
C_FG        C        0.875        0.203703        0.618189708029197        0.2        
C4        C        0.9062500000000001        0.148148        0.618189708029197        0        
C1        C        0.875        0.24074099999999998        0.618189708029197        0        
C2        C        0.9062500000000001        0.296297        0.618189708029197        0        
C3        C        0.875        0.314815        0.618189708029197        0        
C4        C        0.9062500000000001        0.259259        0.618189708029197        0        
C_FG        C        0.875        0.351852        0.618189708029197        0.2        
C2        C        0.9062500000000001        0.407408        0.618189708029197        0        
C3        C        0.875        0.425925        0.618189708029197        0        
C4        C        0.9062500000000001        0.37037        0.618189708029197        0        
C1        C        0.875        0.46296300000000007        0.618189708029197        0        
C2        C        0.9062500000000001        0.518519        0.618189708029197        0        
C_FG        C        0.875        0.537037        0.618189708029197        0.2        
C4        C        0.9062500000000001        0.481481        0.618189708029197        0        
C1        C        0.875        0.574075        0.618189708029197        0        
C2        C        0.9062500000000001        0.62963        0.618189708029197        0        
C3        C        0.875        0.648148        0.618189708029197        0        
C4        C        0.9062500000000001        0.592592        0.618189708029197        0        
C1        C        0.9375        0.018519        0.618189708029197        0        
C2        C        0.9687500000000001        0.074075        0.618189708029197        0        
C3        C        0.9375        0.092592        0.618189708029197        0        
C4        C        0.9687500000000001        0.037037        0.618189708029197        0        
C1        C        0.9375        0.12963        0.618189708029197        0        
C2        C        0.9687500000000001        0.185185        0.618189708029197        0        
C3        C        0.9375        0.203703        0.618189708029197        0        
C4        C        0.9687500000000001        0.148148        0.618189708029197        0        
C1        C        0.9375        0.24074099999999998        0.618189708029197        0        
C2        C        0.9687500000000001        0.296297        0.618189708029197        0        
C3        C        0.9375        0.314815        0.618189708029197        0        
C4        C        0.9687500000000001        0.259259        0.618189708029197        0        
C1        C        0.9375        0.351852        0.618189708029197        0        
C2        C        0.9687500000000001        0.407408        0.618189708029197        0        
C3        C        0.9375        0.425925        0.618189708029197        0        
C4        C        0.9687500000000001        0.37037        0.618189708029197        0        
C1        C        0.9375        0.46296300000000007        0.618189708029197        0        
C2        C        0.9687500000000001        0.518519        0.618189708029197        0        
C3        C        0.9375        0.537037        0.618189708029197        0        
C4        C        0.9687500000000001        0.481481        0.618189708029197        0        
C1        C        0.9375        0.574075        0.618189708029197        0        
C2        C        0.9687500000000001        0.62963        0.618189708029197        0        
C3        C        0.9375        0.648148        0.618189708029197        0        
C4        C        0.9687500000000001        0.592592        0.618189708029197        0        
C_FG        C        0.0        0.685186        0.618189708029197        0.2        
C1        C        0.0625        0.685186        0.618189708029197        0        
C_FG        C        0.125        0.685186        0.618189708029197        0.2        
C1        C        0.1875        0.685186        0.618189708029197        0        
C_FG        C        0.25        0.685186        0.618189708029197        0.2        
C1        C        0.3125        0.685186        0.618189708029197        0        
C_FG        C        0.375        0.685186        0.618189708029197        0.2        
C1        C        0.4375        0.685186        0.618189708029197        0        
C_FG        C        0.5        0.685186        0.618189708029197        0.2        
C1        C        0.5625        0.685186        0.618189708029197        0        
C_FG        C        0.625        0.685186        0.618189708029197        0.2        
C1        C        0.6875        0.685186        0.618189708029197        0        
C_FG        C        0.75        0.685186        0.618189708029197        0.2        
C1        C        0.8125        0.685186        0.618189708029197        0        
C_FG        C        0.875        0.685186        0.618189708029197        0.2        
C1        C        0.9375        0.685186        0.618189708029197        0        
C2        C        0.03125        0.740741        0.618189708029197        0        
C2        C        0.09375        0.740741        0.618189708029197        0        
C2        C        0.15625        0.740741        0.618189708029197        0        
C2        C        0.21875        0.740741        0.618189708029197        0        
C2        C        0.28125        0.740741        0.618189708029197        0        
C2        C        0.34375        0.740741        0.618189708029197        0        
C2        C        0.40625        0.740741        0.618189708029197        0        
C2        C        0.46875        0.740741        0.618189708029197        0        
C2        C        0.53125        0.740741        0.618189708029197        0        
C2        C        0.59375        0.740741        0.618189708029197        0        
C2        C        0.65625        0.740741        0.618189708029197        0        
C2        C        0.71875        0.740741        0.618189708029197        0        
C2        C        0.78125        0.740741        0.618189708029197        0        
C2        C        0.84375        0.740741        0.618189708029197        0        
C2        C        0.9062500000000001        0.740741        0.618189708029197        0        
C2        C        0.9687500000000001        0.740741        0.618189708029197        0        
C3        C        0.0        0.759259        0.618189708029197        0        
C3        C        0.0625        0.759259        0.618189708029197        0        
C3        C        0.125        0.759259        0.618189708029197        0        
C3        C        0.1875        0.759259        0.618189708029197        0        
C3        C        0.25        0.759259        0.618189708029197        0        
C3        C        0.3125        0.759259        0.618189708029197        0        
C3        C        0.375        0.759259        0.618189708029197        0        
C3        C        0.4375        0.759259        0.618189708029197        0        
C3        C        0.5        0.759259        0.618189708029197        0        
C3        C        0.5625        0.759259        0.618189708029197        0        
C3        C        0.625        0.759259        0.618189708029197        0        
C3        C        0.6875        0.759259        0.618189708029197        0        
C3        C        0.75        0.759259        0.618189708029197        0        
C3        C        0.8125        0.759259        0.618189708029197        0        
C3        C        0.875        0.759259        0.618189708029197        0        
C3        C        0.9375        0.759259        0.618189708029197        0        
C4        C        0.03125        0.703703        0.618189708029197        0        
C4        C        0.09375        0.703703        0.618189708029197        0        
C4        C        0.15625        0.703703        0.618189708029197        0        
C4        C        0.21875        0.703703        0.618189708029197        0        
C4        C        0.28125        0.703703        0.618189708029197        0        
C4        C        0.34375        0.703703        0.618189708029197        0        
C4        C        0.40625        0.703703        0.618189708029197        0        
C4        C        0.46875        0.703703        0.618189708029197        0        
C4        C        0.53125        0.703703        0.618189708029197        0        
C4        C        0.59375        0.703703        0.618189708029197        0        
C4        C        0.65625        0.703703        0.618189708029197        0        
C4        C        0.71875        0.703703        0.618189708029197        0        
C4        C        0.78125        0.703703        0.618189708029197        0        
C4        C        0.84375        0.703703        0.618189708029197        0        
C4        C        0.9062500000000001        0.703703        0.618189708029197        0        
C4        C        0.9687500000000001        0.703703        0.618189708029197        0        
C1        C        0.0        0.796297        0.618189708029197        0        
C1        C        0.0625        0.796297        0.618189708029197        0        
C1        C        0.125        0.796297        0.618189708029197        0        
C1        C        0.1875        0.796297        0.618189708029197        0        
C1        C        0.25        0.796297        0.618189708029197        0        
C1        C        0.3125        0.796297        0.618189708029197        0        
C1        C        0.375        0.796297        0.618189708029197        0        
C1        C        0.4375        0.796297        0.618189708029197        0        
C1        C        0.5        0.796297        0.618189708029197        0        
C1        C        0.5625        0.796297        0.618189708029197        0        
C1        C        0.625        0.796297        0.618189708029197        0        
C1        C        0.6875        0.796297        0.618189708029197        0        
C1        C        0.75        0.796297        0.618189708029197        0        
C1        C        0.8125        0.796297        0.618189708029197        0        
C1        C        0.875        0.796297        0.618189708029197        0        
C1        C        0.9375        0.796297        0.618189708029197        0        
C2        C        0.03125        0.851852        0.618189708029197        0        
C2        C        0.09375        0.851852        0.618189708029197        0        
C2        C        0.15625        0.851852        0.618189708029197        0        
C2        C        0.21875        0.851852        0.618189708029197        0        
C2        C        0.28125        0.851852        0.618189708029197        0        
C2        C        0.34375        0.851852        0.618189708029197        0        
C2        C        0.40625        0.851852        0.618189708029197        0        
C2        C        0.46875        0.851852        0.618189708029197        0        
C2        C        0.53125        0.851852        0.618189708029197        0        
C2        C        0.59375        0.851852        0.618189708029197        0        
C2        C        0.65625        0.851852        0.618189708029197        0        
C2        C        0.71875        0.851852        0.618189708029197        0        
C2        C        0.78125        0.851852        0.618189708029197        0        
C2        C        0.84375        0.851852        0.618189708029197        0        
C2        C        0.9062500000000001        0.851852        0.618189708029197        0        
C2        C        0.9687500000000001        0.851852        0.618189708029197        0        
C_FG        C        0.0        0.87037        0.618189708029197        0.2        
C3        C        0.0625        0.87037        0.618189708029197        0        
C_FG        C        0.125        0.87037        0.618189708029197        0.2        
C3        C        0.1875        0.87037        0.618189708029197        0        
C_FG        C        0.25        0.87037        0.618189708029197        0.2        
C3        C        0.3125        0.87037        0.618189708029197        0        
C_FG        C        0.375        0.87037        0.618189708029197        0.2        
C3        C        0.4375        0.87037        0.618189708029197        0        
C_FG        C        0.5        0.87037        0.618189708029197        0.2        
C3        C        0.5625        0.87037        0.618189708029197        0        
C_FG        C        0.625        0.87037        0.618189708029197        0.2        
C3        C        0.6875        0.87037        0.618189708029197        0        
C_FG        C        0.75        0.87037        0.618189708029197        0.2        
C3        C        0.8125        0.87037        0.618189708029197        0        
C_FG        C        0.875        0.87037        0.618189708029197        0.2        
C3        C        0.9375        0.87037        0.618189708029197        0        
C4        C        0.03125        0.814814        0.618189708029197        0        
C4        C        0.09375        0.814814        0.618189708029197        0        
C4        C        0.15625        0.814814        0.618189708029197        0        
C4        C        0.21875        0.814814        0.618189708029197        0        
C4        C        0.28125        0.814814        0.618189708029197        0        
C4        C        0.34375        0.814814        0.618189708029197        0        
C4        C        0.40625        0.814814        0.618189708029197        0        
C4        C        0.46875        0.814814        0.618189708029197        0        
C4        C        0.53125        0.814814        0.618189708029197        0        
C4        C        0.59375        0.814814        0.618189708029197        0        
C4        C        0.65625        0.814814        0.618189708029197        0        
C4        C        0.71875        0.814814        0.618189708029197        0        
C4        C        0.78125        0.814814        0.618189708029197        0        
C4        C        0.84375        0.814814        0.618189708029197        0        
C4        C        0.9062500000000001        0.814814        0.618189708029197        0        
C4        C        0.9687500000000001        0.814814        0.618189708029197        0        
C1        C        0.0        0.907408        0.618189708029197        0        
C1        C        0.0625        0.907408        0.618189708029197        0        
C1        C        0.125        0.907408        0.618189708029197        0        
C1        C        0.1875        0.907408        0.618189708029197        0        
C1        C        0.25        0.907408        0.618189708029197        0        
C1        C        0.3125        0.907408        0.618189708029197        0        
C1        C        0.375        0.907408        0.618189708029197        0        
C1        C        0.4375        0.907408        0.618189708029197        0        
C1        C        0.5        0.907408        0.618189708029197        0        
C1        C        0.5625        0.907408        0.618189708029197        0        
C1        C        0.625        0.907408        0.618189708029197        0        
C1        C        0.6875        0.907408        0.618189708029197        0        
C1        C        0.75        0.907408        0.618189708029197        0        
C1        C        0.8125        0.907408        0.618189708029197        0        
C1        C        0.875        0.907408        0.618189708029197        0        
C1        C        0.9375        0.907408        0.618189708029197        0        
C2        C        0.03125        0.962963        0.618189708029197        0        
C2        C        0.09375        0.962963        0.618189708029197        0        
C2        C        0.15625        0.962963        0.618189708029197        0        
C2        C        0.21875        0.962963        0.618189708029197        0        
C2        C        0.28125        0.962963        0.618189708029197        0        
C2        C        0.34375        0.962963        0.618189708029197        0        
C2        C        0.40625        0.962963        0.618189708029197        0        
C2        C        0.46875        0.962963        0.618189708029197        0        
C2        C        0.53125        0.962963        0.618189708029197        0        
C2        C        0.59375        0.962963        0.618189708029197        0        
C2        C        0.65625        0.962963        0.618189708029197        0        
C2        C        0.71875        0.962963        0.618189708029197        0        
C2        C        0.78125        0.962963        0.618189708029197        0        
C2        C        0.84375        0.962963        0.618189708029197        0        
C2        C        0.9062500000000001        0.962963        0.618189708029197        0        
C2        C        0.9687500000000001        0.962963        0.618189708029197        0        
C3        C        0.0        0.9814809999999999        0.618189708029197        0        
C3        C        0.0625        0.9814809999999999        0.618189708029197        0        
C3        C        0.125        0.9814809999999999        0.618189708029197        0        
C3        C        0.1875        0.9814809999999999        0.618189708029197        0        
C3        C        0.25        0.9814809999999999        0.618189708029197        0        
C3        C        0.3125        0.9814809999999999        0.618189708029197        0        
C3        C        0.375        0.9814809999999999        0.618189708029197        0        
C3        C        0.4375        0.9814809999999999        0.618189708029197        0        
C3        C        0.5        0.9814809999999999        0.618189708029197        0        
C3        C        0.5625        0.9814809999999999        0.618189708029197        0        
C3        C        0.625        0.9814809999999999        0.618189708029197        0        
C3        C        0.6875        0.9814809999999999        0.618189708029197        0        
C3        C        0.75        0.9814809999999999        0.618189708029197        0        
C3        C        0.8125        0.9814809999999999        0.618189708029197        0        
C3        C        0.875        0.9814809999999999        0.618189708029197        0        
C3        C        0.9375        0.9814809999999999        0.618189708029197        0        
C4        C        0.03125        0.925925        0.618189708029197        0        
C4        C        0.09375        0.925925        0.618189708029197        0        
C4        C        0.15625        0.925925        0.618189708029197        0        
C4        C        0.21875        0.925925        0.618189708029197        0        
C4        C        0.28125        0.925925        0.618189708029197        0        
C4        C        0.34375        0.925925        0.618189708029197        0        
C4        C        0.40625        0.925925        0.618189708029197        0        
C4        C        0.46875        0.925925        0.618189708029197        0        
C4        C        0.53125        0.925925        0.618189708029197        0        
C4        C        0.59375        0.925925        0.618189708029197        0        
C4        C        0.65625        0.925925        0.618189708029197        0        
C4        C        0.71875        0.925925        0.618189708029197        0        
C4        C        0.78125        0.925925        0.618189708029197        0        
C4        C        0.84375        0.925925        0.618189708029197        0        
C4        C        0.9062500000000001        0.925925        0.618189708029197        0        
C4        C        0.9687500000000001        0.925925        0.618189708029197        0        
O_OH        O        0.0        0.018519        0.024540072992700723        -0.64        
O_OH        O        0.0        0.203703        0.024540072992700723        -0.64        
O_OH        O        0.0        0.351852        0.024540072992700723        -0.64        
O_OH        O        0.0        0.537037        0.024540072992700723        -0.64        
O_OH        O        0.125        0.018519        0.024540072992700723        -0.64        
O_OH        O        0.125        0.203703        0.024540072992700723        -0.64        
O_OH        O        0.125        0.351852        0.024540072992700723        -0.64        
O_OH        O        0.125        0.537037        0.024540072992700723        -0.64        
O_OH        O        0.25        0.018519        0.024540072992700723        -0.64        
O_OH        O        0.25        0.203703        0.024540072992700723        -0.64        
O_OH        O        0.25        0.351852        0.024540072992700723        -0.64        
O_OH        O        0.25        0.537037        0.024540072992700723        -0.64        
O_OH        O        0.375        0.018519        0.024540072992700723        -0.64        
O_OH        O        0.375        0.203703        0.024540072992700723        -0.64        
O_OH        O        0.375        0.351852        0.024540072992700723        -0.64        
O_OH        O        0.375        0.537037        0.024540072992700723        -0.64        
O_OH        O        0.5        0.018519        0.024540072992700723        -0.64        
O_OH        O        0.5        0.203703        0.024540072992700723        -0.64        
O_OH        O        0.5        0.351852        0.024540072992700723        -0.64        
O_OH        O        0.5        0.537037        0.024540072992700723        -0.64        
O_OH        O        0.625        0.018519        0.024540072992700723        -0.64        
O_OH        O        0.625        0.203703        0.024540072992700723        -0.64        
O_OH        O        0.625        0.351852        0.024540072992700723        -0.64        
O_OH        O        0.625        0.537037        0.024540072992700723        -0.64        
O_OH        O        0.75        0.018519        0.024540072992700723        -0.64        
O_OH        O        0.75        0.203703        0.024540072992700723        -0.64        
O_OH        O        0.75        0.351852        0.024540072992700723        -0.64        
O_OH        O        0.75        0.537037        0.024540072992700723        -0.64        
O_OH        O        0.875        0.018519        0.024540072992700723        -0.64        
O_OH        O        0.875        0.203703        0.024540072992700723        -0.64        
O_OH        O        0.875        0.351852        0.024540072992700723        -0.64        
O_OH        O        0.875        0.537037        0.024540072992700723        -0.64        
O_OH        O        0.0        0.685186        0.024540072992700723        -0.64        
O_OH        O        0.125        0.685186        0.024540072992700723        -0.64        
O_OH        O        0.25        0.685186        0.024540072992700723        -0.64        
O_OH        O        0.375        0.685186        0.024540072992700723        -0.64        
O_OH        O        0.5        0.685186        0.024540072992700723        -0.64        
O_OH        O        0.625        0.685186        0.024540072992700723        -0.64        
O_OH        O        0.75        0.685186        0.024540072992700723        -0.64        
O_OH        O        0.875        0.685186        0.024540072992700723        -0.64        
O_OH        O        0.0        0.87037        0.024540072992700723        -0.64        
O_OH        O        0.125        0.87037        0.024540072992700723        -0.64        
O_OH        O        0.25        0.87037        0.024540072992700723        -0.64        
O_OH        O        0.375        0.87037        0.024540072992700723        -0.64        
O_OH        O        0.5        0.87037        0.024540072992700723        -0.64        
O_OH        O        0.625        0.87037        0.024540072992700723        -0.64        
O_OH        O        0.75        0.87037        0.024540072992700723        -0.64        
O_OH        O        0.875        0.87037        0.024540072992700723        -0.64        
O_OH        O        0.0        0.018519        0.7227882481751825        -0.64        
O_OH        O        0.0        0.203703        0.7227882481751825        -0.64        
O_OH        O        0.0        0.351852        0.7227882481751825        -0.64        
O_OH        O        0.0        0.537037        0.7227882481751825        -0.64        
O_OH        O        0.125        0.018519        0.7227882481751825        -0.64        
O_OH        O        0.125        0.203703        0.7227882481751825        -0.64        
O_OH        O        0.125        0.351852        0.7227882481751825        -0.64        
O_OH        O        0.125        0.537037        0.7227882481751825        -0.64        
O_OH        O        0.25        0.018519        0.7227882481751825        -0.64        
O_OH        O        0.25        0.203703        0.7227882481751825        -0.64        
O_OH        O        0.25        0.351852        0.7227882481751825        -0.64        
O_OH        O        0.25        0.537037        0.7227882481751825        -0.64        
O_OH        O        0.375        0.018519        0.7227882481751825        -0.64        
O_OH        O        0.375        0.203703        0.7227882481751825        -0.64        
O_OH        O        0.375        0.351852        0.7227882481751825        -0.64        
O_OH        O        0.375        0.537037        0.7227882481751825        -0.64        
O_OH        O        0.5        0.018519        0.7227882481751825        -0.64        
O_OH        O        0.5        0.203703        0.7227882481751825        -0.64        
O_OH        O        0.5        0.351852        0.7227882481751825        -0.64        
O_OH        O        0.5        0.537037        0.7227882481751825        -0.64        
O_OH        O        0.625        0.018519        0.7227882481751825        -0.64        
O_OH        O        0.625        0.203703        0.7227882481751825        -0.64        
O_OH        O        0.625        0.351852        0.7227882481751825        -0.64        
O_OH        O        0.625        0.537037        0.7227882481751825        -0.64        
O_OH        O        0.75        0.018519        0.7227882481751825        -0.64        
O_OH        O        0.75        0.203703        0.7227882481751825        -0.64        
O_OH        O        0.75        0.351852        0.7227882481751825        -0.64        
O_OH        O        0.75        0.537037        0.7227882481751825        -0.64        
O_OH        O        0.875        0.018519        0.7227882481751825        -0.64        
O_OH        O        0.875        0.203703        0.7227882481751825        -0.64        
O_OH        O        0.875        0.351852        0.7227882481751825        -0.64        
O_OH        O        0.875        0.537037        0.7227882481751825        -0.64        
O_OH        O        0.0        0.685186        0.7227882481751825        -0.64        
O_OH        O        0.125        0.685186        0.7227882481751825        -0.64        
O_OH        O        0.25        0.685186        0.7227882481751825        -0.64        
O_OH        O        0.375        0.685186        0.7227882481751825        -0.64        
O_OH        O        0.5        0.685186        0.7227882481751825        -0.64        
O_OH        O        0.625        0.685186        0.7227882481751825        -0.64        
O_OH        O        0.75        0.685186        0.7227882481751825        -0.64        
O_OH        O        0.875        0.685186        0.7227882481751825        -0.64        
O_OH        O        0.0        0.87037        0.7227882481751825        -0.64        
O_OH        O        0.125        0.87037        0.7227882481751825        -0.64        
O_OH        O        0.25        0.87037        0.7227882481751825        -0.64        
O_OH        O        0.375        0.87037        0.7227882481751825        -0.64        
O_OH        O        0.5        0.87037        0.7227882481751825        -0.64        
O_OH        O        0.625        0.87037        0.7227882481751825        -0.64        
O_OH        O        0.75        0.87037        0.7227882481751825        -0.64        
O_OH        O        0.875        0.87037        0.7227882481751825        -0.64        
H_OH        H        -0.0016212808460269968        0.04191331725111476        0.0        0.44        
H_OH        H        0.006754292091737597        0.22610800438366624        0.0        0.44        
H_OH        H        -0.013036037926280514        0.3711124176795589        0.0        0.44        
H_OH        H        -0.02259188834941685        0.5405230586629691        0.0        0.44        
H_OH        H        0.1128896684836946        0.03840610405262128        0.0        0.44        
H_OH        H        0.13188634102806948        0.22606559992301006        0.0        0.44        
H_OH        H        0.1464405864674831        0.35995018039209825        0.0        0.44        
H_OH        H        0.13560861711962133        0.5578084647812414        0.0        0.44        
H_OH        H        0.2546339674931127        0.04148490789705656        0.0        0.44        
H_OH        H        0.23736010726846132        0.22323972147227755        0.0        0.44        
H_OH        H        0.2273768847397276        0.3551176630097959        0.0        0.44        
H_OH        H        0.227166701979447        0.5378085435879075        0.0        0.44        
H_OH        H        0.36210305730840436        0.03787785653191046        0.0        0.44        
H_OH        H        0.36754119568955734        0.2258712440694603        0.0        0.44        
H_OH        H        0.36902911106842123        0.37449025641147965        0.0        0.44        
H_OH        H        0.36752415667292093        0.5591991942356516        0.0        0.44        
H_OH        H        0.47754596448061437        0.022843016093486008        0.0        0.44        
H_OH        H        0.49668463943080343        0.2269081742780808        0.0        0.44        
H_OH        H        0.4944355892723557        0.37459913838617054        0.0        0.44        
H_OH        H        0.4863227276892906        0.5558229161040371        0.0        0.44        
H_OH        H        0.6258877782043492        0.04195473570455151        0.0        0.44        
H_OH        H        0.6022784167036169        0.2061440687695442        0.0        0.44        
H_OH        H        0.6137404537119248        0.37225914705422797        0.0        0.44        
H_OH        H        0.6409764874346127        0.5538016730909532        0.0        0.44        
H_OH        H        0.7694155912942031        0.03087920809291614        0.0        0.44        
H_OH        H        0.7512048592566561        0.22712381119842195        0.0        0.44        
H_OH        H        0.7658779796372625        0.36871501754439195        0.0        0.44        
H_OH        H        0.7431770962755411        0.5594200838424217        0.0        0.44        
H_OH        H        0.8879652448862989        0.037829713156155534        0.0        0.44        
H_OH        H        0.8554302701578717        0.2158043063340533        0.0        0.44        
H_OH        H        0.8978443658701785        0.35210193721793814        0.0        0.44        
H_OH        H        0.8935041842201384        0.5507919427009002        0.0        0.44        
H_OH        H        0.015323940434090303        0.7025808410953376        0.0        0.44        
H_OH        H        0.14684540715190636        0.6920498682971555        0.0        0.44        
H_OH        H        0.24405396553695324        0.7078311498436022        0.0        0.44        
H_OH        H        0.35215517405028823        0.6853867849661891        0.0        0.44        
H_OH        H        0.5193924364212406        0.6975844590824898        0.0        0.44        
H_OH        H        0.6048154227657762        0.6961714870317933        0.0        0.44        
H_OH        H        0.740286566785782        0.7064139664208343        0.0        0.44        
H_OH        H        0.8966378741046163        0.6927108558007535        0.0        0.44        
H_OH        H        0.01879484946480567        0.8837031310952668        0.0        0.44        
H_OH        H        0.1474347393660914        0.8747983176016859        0.0        0.44        
H_OH        H        0.267151669113786        0.885862695964829        0.0        0.44        
H_OH        H        0.3813707747307825        0.8928930839023821        0.0        0.44        
H_OH        H        0.5072935035207312        0.8925961353115656        0.0        0.44        
H_OH        H        0.6130549403531169        0.8903621719545433        0.0        0.44        
H_OH        H        0.7620738669175872        0.8902804575879466        0.0        0.44        
H_OH        H        0.8961397718553372        0.8792626889900472        0.0        0.44        
H_OH        H        0.0018289523096053154        0.04189717215089953        0.7473283211678833        0.44        
H_OH        H        0.011338070806013848        0.22406427481014135        0.7473283211678833        0.44        
H_OH        H        0.021588163404236294        0.35952585859619673        0.7473283211678833        0.44        
H_OH        H        0.02245047489300532        0.5413804575949033        0.7473283211678833        0.44        
H_OH        H        0.11334464224046206        0.038690580320789654        0.7473283211678833        0.44        
H_OH        H        0.10818363208092371        0.21957836545166748        0.7473283211678833        0.44        
H_OH        H        0.10881549002336065        0.36840504632058113        0.7473283211678833        0.44        
H_OH        H        0.12297364121160206        0.5603980110290679        0.7473283211678833        0.44        
H_OH        H        0.25415309989398016        0.041581657234159075        0.7473283211678833        0.44        
H_OH        H        0.2579294381387494        0.22569841648513053        0.7473283211678833        0.44        
H_OH        H        0.2725507800344695        0.35560811473432774        0.7473283211678833        0.44        
H_OH        H        0.22947532760560677        0.5473369728013571        0.7473283211678833        0.44        
H_OH        H        0.3884049026922657        0.0375107010513303        0.7473283211678833        0.44        
H_OH        H        0.38226979697708924        0.22593731920780605        0.7473283211678833        0.44        
H_OH        H        0.37928543712984714        0.3748891269122974        0.7473283211678833        0.44        
H_OH        H        0.38262936325744146        0.5591439870120825        0.7473283211678833        0.44        
H_OH        H        0.4851790639746877        0.03636727806290421        0.7473283211678833        0.44        
H_OH        H        0.4875779914215703        0.22338645726215423        0.7473283211678833        0.44        
H_OH        H        0.493020963820367        0.37418429335449804        0.7473283211678833        0.44        
H_OH        H        0.48444529092154937        0.554214615589024        0.7473283211678833        0.44        
H_OH        H        0.6476645416044315        0.021466422785495404        0.7473283211678833        0.44        
H_OH        H        0.6113613479772125        0.22251848487982423        0.7473283211678833        0.44        
H_OH        H        0.6314602336101912        0.374348212427688        0.7473283211678833        0.44        
H_OH        H        0.6396151812433288        0.55506320869756        0.7473283211678833        0.44        
H_OH        H        0.7718806240263514        0.025263610370499612        0.7473283211678833        0.44        
H_OH        H        0.7337558016621832        0.220194311818841        0.7473283211678833        0.44        
H_OH        H        0.7706502553573634        0.3618839379049714        0.7473283211678833        0.44        
H_OH        H        0.7621769201906882        0.5568812045916212        0.7473283211678833        0.44        
H_OH        H        0.897842771844418        0.018892124099058726        0.7473283211678833        0.44        
H_OH        H        0.877316097038033        0.22703561290693688        0.7473283211678833        0.44        
H_OH        H        0.8912368101908071        0.36835097810214296        0.7473283211678833        0.44        
H_OH        H        0.8598714946265062        0.5546112098420128        0.7473283211678833        0.44        
H_OH        H        -0.018387709837511597        0.6991045877102352        0.7473283211678833        0.44        
H_OH        H        0.14784536429178888        0.6853059645096807        0.7473283211678833        0.44        
H_OH        H        0.2392134202791923        0.7058606443019595        0.7473283211678833        0.44        
H_OH        H        0.3975842219807321        0.6887240241350137        0.7473283211678833        0.44        
H_OH        H        0.5216859181812284        0.692563654089261        0.7473283211678833        0.44        
H_OH        H        0.6463592384288818        0.6935076540139787        0.7473283211678833        0.44        
H_OH        H        0.771393479591204        0.693414432117692        0.7473283211678833        0.44        
H_OH        H        0.8589371932855249        0.7018635161436473        0.7473283211678833        0.44        
H_OH        H        0.018709713754652333        0.883828733771601        0.7473283211678833        0.44        
H_OH        H        0.10848055376255102        0.8865705870490472        0.7473283211678833        0.44        
H_OH        H        0.23057064564704802        0.8827073941341361        0.7473283211678833        0.44        
H_OH        H        0.3581383890446822        0.8861947079862241        0.7473283211678833        0.44        
H_OH        H        0.5196632759634955        0.8823104205500734        0.7473283211678833        0.44        
H_OH        H        0.6211746605480409        0.8934923304735647        0.7473283211678833        0.44        
H_OH        H        0.7272993941873617        0.8730087560299049        0.7473283211678833        0.44        
H_OH        H        0.8719252087239304        0.8936100574684833        0.7473283211678833        0.44        
