data_MOF-801

_cell_length_a       17.8348
_cell_length_b       17.8348
_cell_length_c       17.8348
_cell_angle_alpha    90
_cell_angle_beta     90
_cell_angle_gamma    90

_symmetry_cell_setting          triclinic
_symmetry_space_group_name_Hall 'P 1'
_symmetry_space_group_name_H-M  'P 1'
_symmetry_Int_Tables_number     1

_symmetry_equiv_pos_as_xyz 'x,y,z'

loop_
  _atom_site_label
  _atom_site_type_symbol
  _atom_site_fract_x
  _atom_site_fract_y
  _atom_site_fract_z  
  _atom_site_charge
H1        H        0.61005        0.61005        0.61005        0.8081367983093554        
H2        H        0.60895        0.37156        0.41021        0.8081367983093554        
H3        H        0.41021        0.60895        0.37156        0.8081367983093554        
H4        H        0.37156        0.41021        0.60895        0.8081367983093554        
H5        H        0.12858        0.08977        0.60897        0.8081367983093554        
H6        H        0.08995        0.89100        0.37160        0.8081367983093554        
H7        H        0.89116        0.12839        0.41022        0.8081367983093554        
H8        H        0.89002        0.88999        0.61004        0.8081367983093554        
H9        H        0.60897        0.12858        0.08977        0.8081367983093554        
H10        H        0.61004        0.89002        0.89000        0.8081367983093554        
H11        H        0.37160        0.08995        0.89101        0.8081367983093554        
H12        H        0.41022        0.89116        0.12839        0.8081367983093554        
H13        H        0.08977        0.60896        0.12858        0.8081367983093554        
H14        H        0.12839        0.41022        0.89116        0.8081367983093554        
H15        H        0.89000        0.61004        0.89002        0.8081367983093554        
H16        H        0.89101        0.37160        0.08995        0.8081367983093554        
H17        H        0.18889        0.81153        0.02437        0.22460402484095        
H18        H        0.81151        0.18907        0.96126        0.22460402484095        
H19        H        0.31116        0.68864        0.02439        0.22460402484095        
H20        H        0.68845        0.31106        0.96127        0.22460402484095        
H21        H        0.31113        0.81147        0.47550        0.22460402484095        
H22        H        0.68854        0.18899        0.53869        0.224559729292929        
H23        H        0.18897        0.68845        0.47577        0.22460402484095        
H24        H        0.81162        0.31097        0.53857        0.224559729292929        
H25        H        0.02437        0.18889        0.81153        0.22460402484095        
H26        H        0.96127        0.81151        0.18907        0.22460402484095        
H27        H        0.02439        0.31116        0.68864        0.22460402484095        
H28        H        0.96128        0.68844        0.31106        0.22460402484095        
H29        H        0.47550        0.31113        0.81147        0.22460402484095        
H30        H        0.53869        0.68854        0.18900        0.22460402484095        
H31        H        0.47577        0.18897        0.68846        0.22460402484095        
H32        H        0.53857        0.81162        0.31097        0.224559729292929        
H33        H        0.81153        0.02437        0.18888        0.22460402484095        
H34        H        0.18907        0.96127        0.81151        0.22460402484095        
H35        H        0.68864        0.02439        0.31116        0.22460402484095        
H36        H        0.31106        0.96127        0.68845        0.22460402484095        
H37        H        0.81147        0.47550        0.31113        0.22460402484095        
H38        H        0.18899        0.53869        0.68854        0.224559729292929        
H39        H        0.68846        0.47577        0.18897        0.22460402484095        
H40        H        0.31097        0.53857        0.81162        0.224559729292929        
H41        H        0.31165        0.31096        0.00824        0.22460402484095        
H42        H        0.68784        0.68956        0.00588        0.22460402484095        
H43        H        0.18834        0.18912        0.00808        0.22460402484095        
H44        H        0.81204        0.81062        0.00600        0.22460402484095        
H45        H        0.18838        0.31084        0.49184        0.22460402484095        
H46        H        0.81209        0.68946        0.49404        0.22460402484095        
H47        H        0.31176        0.18908        0.49180        0.22460402484095        
H48        H        0.68801        0.81064        0.49407        0.22460402484095        
H49        H        0.00824        0.31164        0.31096        0.22460402484095        
H50        H        0.00588        0.68784        0.68956        0.22460402484095        
H51        H        0.00808        0.18834        0.18912        0.22460402484095        
H52        H        0.00600        0.81204        0.81062        0.22460402484095        
H53        H        0.49184        0.18838        0.31084        0.22460402484095        
H54        H        0.49405        0.81209        0.68946        0.22460402484095        
H55        H        0.49180        0.31176        0.18908        0.22460402484095        
H56        H        0.49407        0.68800        0.81064        0.22460402484095        
H57        H        0.31096        0.00824        0.31165        0.22460402484095        
H58        H        0.68956        0.00588        0.68784        0.22460402484095        
H59        H        0.18912        0.00808        0.18834        0.22460402484095        
H60        H        0.81063        0.00600        0.81204        0.22460402484095        
H61        H        0.31084        0.49184        0.18838        0.22460402484095        
H62        H        0.68946        0.49404        0.81209        0.22460402484095        
H63        H        0.18908        0.49180        0.31176        0.22460402484095        
H64        H        0.81064        0.49407        0.68801        0.22460402484095        
C1        C        0.15981        0.69146        0.02428        1.2943193307116119        
C2        C        0.84006        0.30919        0.96565        1.2986819685441149        
C3        C        0.34020        0.80872        0.02419        1.294590211664592        
C4        C        0.65989        0.19093        0.96554        1.2986819685441149        
C5        C        0.34025        0.69141        0.47579        1.295501070222946        
C6        C        0.65997        0.30914        0.53438        1.3047140192409863        
C7        C        0.15985        0.80852        0.47585        1.3137310631784214        
C8        C        0.84020        0.19083        0.53433        1.3047140192409863        
C9        C        0.02428        0.15981        0.69146        1.2943193307116119        
C10        C        0.96565        0.84006        0.30919        1.2986819685441149        
C11        C        0.02419        0.34020        0.80872        1.294590211664592        
C12        C        0.96554        0.65989        0.19093        1.2986819685441149        
C13        C        0.47579        0.34025        0.69141        1.295501070222946        
C14        C        0.53438        0.65997        0.30914        1.3047140192409863        
C15        C        0.47585        0.15985        0.80852        1.2936672970214673        
C16        C        0.53433        0.84021        0.19084        1.303181852098495        
C17        C        0.69146        0.02428        0.15981        1.2943193307116119        
C18        C        0.30919        0.96565        0.84006        1.2986819685441149        
C19        C        0.80872        0.02418        0.34020        1.294590211664592        
C20        C        0.19093        0.96554        0.65989        1.2986819685441149        
C21        C        0.69141        0.47579        0.34025        1.295501070222946        
C22        C        0.30913        0.53438        0.65996        1.2939169919976061        
C23        C        0.80852        0.47585        0.15985        1.2936672970214673        
C24        C        0.19084        0.53433        0.84021        1.303181852098495        
C25        C        0.21282        0.75529        0.02468        -0.3469854785348798        
C26        C        0.78724        0.24517        0.96128        -0.3438244935801154        
C27        C        0.28722        0.74488        0.02467        -0.3469854785348798        
C28        C        0.71271        0.25496        0.96126        -0.3438244935801154        
C29        C        0.28724        0.75521        0.47530        -0.3469854785348798        
C30        C        0.71281        0.24510        0.53866        -0.3457137084954122        
C31        C        0.21286        0.74471        0.47539        -0.3469854785348798        
C32        C        0.78735        0.25486        0.53861        -0.3457137084954122        
C33        C        0.02469        0.21282        0.75529        -0.3469854785348798        
C34        C        0.96128        0.78724        0.24517        -0.3438244935801154        
C35        C        0.02467        0.28722        0.74488        -0.3469854785348798        
C36        C        0.96126        0.71271        0.25496        -0.3438244935801154        
C37        C        0.47530        0.28724        0.75521        -0.3469854785348798        
C38        C        0.53866        0.71281        0.24510        -0.3457137084954122        
C39        C        0.47539        0.21286        0.74472        -0.3469854785348798        
C40        C        0.53861        0.78735        0.25486        -0.3457137084954122        
C41        C        0.75529        0.02468        0.21282        -0.346983021507841        
C42        C        0.24517        0.96128        0.78724        -0.3438244935801154        
C43        C        0.74488        0.02467        0.28722        -0.3469854785348798        
C44        C        0.25496        0.96126        0.71271        -0.3438244935801154        
C45        C        0.75521        0.47530        0.28724        -0.3469854785348798        
C46        C        0.24510        0.53866        0.71281        -0.3457137084954122        
C47        C        0.74472        0.47539        0.21285        -0.3469854785348798        
C48        C        0.25486        0.53861        0.78735        -0.3457137084954122        
C49        C        0.19163        0.34013        0.00606        1.40397555226014        
C50        C        0.80782        0.65990        0.00407        1.3455276849044486        
C51        C        0.30835        0.15996        0.00585        1.40397555226014        
C52        C        0.69208        0.84031        0.00402        1.3460581600158712        
C53        C        0.30838        0.34009        0.49406        1.40397555226014        
C54        C        0.69211        0.65987        0.49598        1.3693529505404336        
C55        C        0.19177        0.15985        0.49407        1.3891566967677211        
C56        C        0.80801        0.84019        0.49600        1.3460581600158712        
C57        C        0.00606        0.19163        0.34013        1.40602653004653        
C58        C        0.00407        0.80782        0.65989        1.3460581600158712        
C59        C        0.00586        0.30835        0.15996        1.40397555226014        
C60        C        0.00401        0.69208        0.84031        1.3460581600158712        
C61        C        0.49406        0.30838        0.34009        1.40397555226014        
C62        C        0.49598        0.69211        0.65987        1.3460581600158712        
C63        C        0.49407        0.19176        0.15985        1.3891566967677211        
C64        C        0.49600        0.80800        0.84019        1.3460581600158712        
C65        C        0.34012        0.00606        0.19163        1.3891566967677211        
C66        C        0.65990        0.00407        0.80782        1.3455276849044486        
C67        C        0.15996        0.00585        0.30836        1.40397555226014        
C68        C        0.84031        0.00401        0.69208        1.3693529505404336        
C69        C        0.34009        0.49406        0.30837        1.40397555226014        
C70        C        0.65987        0.49598        0.69210        1.3693529505404336        
C71        C        0.15985        0.49407        0.19177        1.3891566967677211        
C72        C        0.84019        0.49600        0.80801        1.3455276849044486        
C73        C        0.25534        0.28719        0.00760        -0.3378589767355008        
C74        C        0.74430        0.71297        0.00635        -0.3370985268669566        
C75        C        0.24464        0.21289        0.00750        -0.3370985268669566        
C76        C        0.75558        0.78722        0.00638        -0.3370985268669566        
C77        C        0.24470        0.28711        0.49244        -0.3378589767355008        
C78        C        0.75565        0.71291        0.49364        -0.3370985268669566        
C79        C        0.25545        0.21281        0.49243        -0.3370985268669566        
C80        C        0.74443        0.78718        0.49365        -0.3370985268669566        
C81        C        0.00760        0.25534        0.28719        -0.3370985268669566        
C82        C        0.00635        0.74429        0.71297        -0.3370985268669566        
C83        C        0.00750        0.24464        0.21289        -0.3370985268669566        
C84        C        0.00638        0.75558        0.78722        -0.3370985268669566        
C85        C        0.49244        0.24470        0.28711        -0.3378589767355008        
C86        C        0.49364        0.75565        0.71292        -0.3370985268669566        
C87        C        0.49243        0.25545        0.21281        -0.3370985268669566        
C88        C        0.49365        0.74443        0.78718        -0.3370985268669566        
C89        C        0.28719        0.00760        0.25534        -0.3370985268669566        
C90        C        0.71297        0.00635        0.74430        -0.3370985268669566        
C91        C        0.21289        0.00749        0.24464        -0.3370985268669566        
C92        C        0.78722        0.00638        0.75559        -0.3370985268669566        
C93        C        0.28711        0.49244        0.24470        -0.3378589767355008        
C94        C        0.71292        0.49364        0.75565        -0.3378589767355008        
C95        C        0.21281        0.49243        0.25545        -0.3370985268669566        
C96        C        0.78718        0.49365        0.74444        -0.3370985268669566        
O1        O        0.20838        0.40934        0.01176        -1.1996863234467254        
O2        O        0.79110        0.59110        0.99483        -1.0510154667496328        
O3        O        0.29160        0.09074        0.01152        -1.1994299151250216        
O4        O        0.70884        0.90910        0.99473        -1.048254288613618        
O5        O        0.29161        0.40930        0.48841        -1.1998972182675658        
O6        O        0.70880        0.59106        0.50523        -1.0510154667496328        
O7        O        0.20850        0.09064        0.48839        -1.1998972182675658        
O8        O        0.79137        0.90900        0.50526        -1.0510154667496328        
O9        O        0.01177        0.20837        0.40934        -1.1996863234467254        
O10        O        0.99482        0.79110        0.59110        -1.0510154667496328        
O11        O        0.01152        0.29160        0.09074        -1.1994299151250216        
O12        O        0.99473        0.70884        0.90910        -1.048254288613618        
O13        O        0.48841        0.29161        0.40930        -1.1998972182675658        
O14        O        0.50523        0.70880        0.59107        -1.0510154667496328        
O15        O        0.48839        0.20850        0.09064        -1.1998972182675658        
O16        O        0.50526        0.79137        0.90900        -1.0510154667496328        
O17        O        0.40933        0.01177        0.20837        -1.1996863234467254        
O18        O        0.59110        0.99482        0.79110        -1.0510154667496328        
O19        O        0.09074        0.01152        0.29160        -1.1994299151250216        
O20        O        0.90910        0.99472        0.70884        -1.048254288613618        
O21        O        0.40930        0.48841        0.29161        -1.1998972182675658        
O22        O        0.59107        0.50522        0.70880        -1.0510154667496328        
O23        O        0.09064        0.48839        0.20851        -1.1998972182675658        
O24        O        0.90900        0.50526        0.79137        -1.0510154667496328        
O25        O        0.18720        0.62548        0.02468        -1.10589710462185        
O26        O        0.81248        0.37503        0.96843        -1.1229519591558912        
O27        O        0.31277        0.87469        0.02457        -1.10589710462185        
O28        O        0.68748        0.12509        0.96827        -1.1229519591558912        
O29        O        0.31285        0.62544        0.47545        -1.1034769329885181        
O30        O        0.68752        0.37499        0.53165        -1.1229519591558912        
O31        O        0.18724        0.87449        0.47546        -1.10589710462185        
O32        O        0.81268        0.12498        0.53158        -1.1229519591558912        
O33        O        0.02468        0.18720        0.62548        -1.10589710462185        
O34        O        0.96843        0.81248        0.37503        -1.1229519591558912        
O35        O        0.02457        0.31277        0.87469        -1.10589710462185        
O36        O        0.96827        0.68748        0.12509        -1.1229519591558912        
O37        O        0.47545        0.31285        0.62544        -1.1034769329885181        
O38        O        0.53165        0.68752        0.37499        -1.1229519591558912        
O39        O        0.47546        0.18724        0.87449        -1.10589710462185        
O40        O        0.53158        0.81268        0.12498        -1.1229519591558912        
O41        O        0.62548        0.02468        0.18721        -1.10589710462185        
O42        O        0.37503        0.96843        0.81248        -1.1229519591558912        
O43        O        0.87469        0.02456        0.31277        -1.10589710462185        
O44        O        0.12509        0.96826        0.68748        -1.1229519591558912        
O45        O        0.62544        0.47545        0.31285        -1.1034769329885181        
O46        O        0.37498        0.53165        0.68751        -1.1229519591558912        
O47        O        0.87449        0.47546        0.18724        -1.10589710462185        
O48        O        0.12498        0.53158        0.81268        -1.1229519591558912        
O49        O        0.18701        0.50258        0.12630        -1.10589710462185        
O50        O        0.81284        0.49023        0.87371        -1.03370218957998        
O51        O        0.31295        0.99760        0.12617        -1.1061877358201673        
O52        O        0.68717        0.00991        0.87354        -1.03370218957998        
O53        O        0.31295        0.50255        0.37385        -1.1061877358201673        
O54        O        0.68717        0.49020        0.62638        -1.03370218957998        
O55        O        0.18713        0.99737        0.37381        -1.1061877358201673        
O56        O        0.81307        0.00982        0.62634        -1.0326893484339381        
O57        O        0.12630        0.18701        0.50258        -1.10589710462185        
O58        O        0.87371        0.81284        0.49022        -1.03370218957998        
O59        O        0.12617        0.31295        0.99760        -1.1061877358201673        
O60        O        0.87354        0.68717        0.00991        -1.03370218957998        
O61        O        0.37385        0.31295        0.50255        -1.1061877358201673        
O62        O        0.62638        0.68716        0.49020        -1.03370218957998        
O63        O        0.37381        0.18713        0.99737        -1.1061877358201673        
O64        O        0.62634        0.81307        0.00982        -1.0326893484339381        
O65        O        0.50258        0.12630        0.18701        -1.10589710462185        
O66        O        0.49023        0.87371        0.81284        -1.03370218957998        
O67        O        0.99760        0.12616        0.31295        -1.1061877358201673        
O68        O        0.00991        0.87354        0.68717        -1.03370218957998        
O69        O        0.50255        0.37385        0.31295        -1.1061877358201673        
O70        O        0.49020        0.62638        0.68716        -1.03370218957998        
O71        O        0.99737        0.37381        0.18713        -1.1061877358201673        
O72        O        0.00982        0.62634        0.81307        -1.0326893484339381        
O73        O        0.20762        0.53100        0.90959        -1.1236801459524455        
O74        O        0.79161        0.47615        0.09044        -1.1027551326305962        
O75        O        0.29243        0.96903        0.90943        -1.123183007481572        
O76        O        0.70835        0.02403        0.09040        -1.1027551326305962        
O77        O        0.29238        0.53103        0.59059        -1.1236801459524455        
O78        O        0.70831        0.47607        0.40965        -1.1027551326305962        
O79        O        0.20768        0.96889        0.59052        -1.123183007481572        
O80        O        0.79189        0.02388        0.40961        -1.1027551326305962        
O81        O        0.90958        0.20762        0.53100        -1.1236801459524455        
O82        O        0.09044        0.79160        0.47615        -1.1027551326305962        
O83        O        0.90943        0.29243        0.96903        -1.123183007481572        
O84        O        0.09040        0.70835        0.02403        -1.1027551326305962        
O85        O        0.59059        0.29238        0.53103        -1.1236801459524455        
O86        O        0.40965        0.70831        0.47607        -1.1027551326305962        
O87        O        0.59052        0.20768        0.96889        -1.123183007481572        
O88        O        0.40961        0.79189        0.02389        -1.1027551326305962        
O89        O        0.53100        0.90959        0.20762        -1.1236801459524455        
O90        O        0.47615        0.09044        0.79161        -1.1027551326305962        
O91        O        0.96903        0.90943        0.29243        -1.123183007481572        
O92        O        0.02403        0.09040        0.70835        -1.1027551326305962        
O93        O        0.53103        0.59059        0.29238        -1.1236801459524455        
O94        O        0.47607        0.40965        0.70831        -1.1027551326305962        
O95        O        0.96889        0.59052        0.20768        -1.123183007481572        
O96        O        0.02389        0.40961        0.79189        -1.1027551326305962        
O97        O        0.05746        0.44252        0.05759        -2.18828195324834        
O98        O        0.92121        0.57877        0.92142        -2.350924284783002        
O99        O        0.44252        0.05758        0.05746        -2.18828195324834        
O100        O        0.57877        0.92142        0.92121        -2.350924284783002        
O101        O        0.44251        0.44251        0.44251        -2.18828195324834        
O102        O        0.57876        0.57876        0.57876        -2.350924284783002        
O103        O        0.05759        0.05746        0.44252        -2.18828195324834        
O104        O        0.92142        0.92121        0.57877        -2.350924284783002        
O105        O        0.05713        0.56850        0.95283        -2.18828195324834        
O106        O        0.92192        0.40760        0.06375        -2.340630570003466        
O107        O        0.44285        0.93175        0.95255        -2.18828195324834        
O108        O        0.57805        0.09254        0.06363        -2.340630570003466        
O109        O        0.44289        0.56844        0.54738        -2.18828195324834        
O110        O        0.57801        0.40758        0.43636        -2.340630570003466        
O111        O        0.05718        0.93153        0.54740        -2.18828195324834        
O112        O        0.92218        0.09241        0.43633        -2.346669737712865        
O113        O        0.95283        0.05713        0.56850        -2.18828195324834        
O114        O        0.06375        0.92192        0.40760        -2.340630570003466        
O115        O        0.95255        0.44286        0.93175        -2.18828195324834        
O116        O        0.06363        0.57805        0.09254        -2.340630570003466        
O117        O        0.54738        0.44289        0.56844        -2.18828195324834        
O118        O        0.43636        0.57801        0.40758        -2.340630570003466        
O119        O        0.54740        0.05718        0.93153        -2.18828195324834        
O120        O        0.43632        0.92218        0.09241        -2.346669737712865        
O121        O        0.56849        0.95283        0.05713        -2.18828195324834        
O122        O        0.40760        0.06375        0.92192        -2.340630570003466        
O123        O        0.93175        0.95254        0.44286        -2.18828195324834        
O124        O        0.09254        0.06363        0.57805        -2.340630570003466        
O125        O        0.56844        0.54738        0.44290        -2.18828195324834        
O126        O        0.40758        0.43636        0.57801        -2.340630570003466        
O127        O        0.93153        0.54740        0.05718        -2.18828195324834        
O128        O        0.09241        0.43633        0.92218        -2.346669737712865        
Zr1        Zr        0.13804        0.51231        0.01270        4.475078355672382        
Zr2        Zr        0.86136        0.48789        0.98710        4.455124816944794        
Zr3        Zr        0.36196        0.98782        0.01254        4.475078355672382        
Zr4        Zr        0.63860        0.01226        0.98696        4.455124816944794        
Zr5        Zr        0.36198        0.51230        0.48746        4.475078355672382        
Zr6        Zr        0.63852        0.48787        0.51302        4.455124816944794        
Zr7        Zr        0.13808        0.98767        0.48744        4.475078355672382        
Zr8        Zr        0.86188        0.01213        0.51297        4.455124816944794        
Zr9        Zr        0.01270        0.13804        0.51231        4.475078355672382        
Zr10        Zr        0.98710        0.86135        0.48789        4.455124816944794        
Zr11        Zr        0.01254        0.36196        0.98783        4.475078355672382        
Zr12        Zr        0.98696        0.63860        0.01226        4.455124816944794        
Zr13        Zr        0.48746        0.36198        0.51230        4.475078355672382        
Zr14        Zr        0.51302        0.63852        0.48787        4.455124816944794        
Zr15        Zr        0.48745        0.13808        0.98767        4.475078355672382        
Zr16        Zr        0.51297        0.86188        0.01213        4.455124816944794        
Zr17        Zr        0.51231        0.01270        0.13804        4.475078355672382        
Zr18        Zr        0.48790        0.98710        0.86136        4.455124816944794        
Zr19        Zr        0.98782        0.01254        0.36196        4.475078355672382        
Zr20        Zr        0.01226        0.98695        0.63860        4.455124816944794        
Zr21        Zr        0.51230        0.48746        0.36198        4.475078355672382        
Zr22        Zr        0.48787        0.51302        0.63852        4.455124816944794        
Zr23        Zr        0.98767        0.48744        0.13808        4.475078355672382        
Zr24        Zr        0.01213        0.51297        0.86188        4.455124816944794        
