data_MOF-801

_cell_length_a       17.8348
_cell_length_b       17.8348
_cell_length_c       17.8348
_cell_angle_alpha    90
_cell_angle_beta     90
_cell_angle_gamma    90

_symmetry_cell_setting          triclinic
_symmetry_space_group_name_Hall 'P 1'
_symmetry_space_group_name_H-M  'P 1'
_symmetry_Int_Tables_number     1

_symmetry_equiv_pos_as_xyz 'x,y,z'

loop_
  _atom_site_label
  _atom_site_type_symbol
  _atom_site_fract_x
  _atom_site_fract_y
  _atom_site_fract_z  
  _atom_site_charge
  H1       H    0.61005  0.61005  0.61005    0.4040683991546777
  H2       H    0.60895  0.37156  0.41021    0.4040683991546777
  H3       H    0.41021  0.60895  0.37156    0.4040683991546777
  H4       H    0.37156  0.41021  0.60895    0.4040683991546777
  H5       H    0.12858  0.08977  0.60897    0.4040683991546777
  H6       H    0.08995  0.89100  0.37160    0.4040683991546777
  H7       H    0.89116  0.12839  0.41022    0.4040683991546777
  H8       H    0.89002  0.88999  0.61004    0.4040683991546777
  H9       H    0.60897  0.12858  0.08977    0.4040683991546777
  H10      H    0.61004  0.89002  0.89000    0.4040683991546777
  H11      H    0.37160  0.08995  0.89101    0.4040683991546777
  H12      H    0.41022  0.89116  0.12839    0.4040683991546777
  H13      H    0.08977  0.60896  0.12858    0.4040683991546777
  H14      H    0.12839  0.41022  0.89116    0.4040683991546777
  H15      H    0.89000  0.61004  0.89002    0.4040683991546777
  H16      H    0.89101  0.37160  0.08995    0.4040683991546777
  H17      H    0.18889  0.81153  0.02437    0.1123020124204750
  H18      H    0.81151  0.18907  0.96126    0.1123020124204750
  H19      H    0.31116  0.68864  0.02439    0.1123020124204750
  H20      H    0.68845  0.31106  0.96127    0.1123020124204750
  H21      H    0.31113  0.81147  0.47550    0.1123020124204750
  H22      H    0.68854  0.18899  0.53869    0.1122798646464645
  H23      H    0.18897  0.68845  0.47577    0.1123020124204750
  H24      H    0.81162  0.31097  0.53857    0.1122798646464645
  H25      H    0.02437  0.18889  0.81153    0.1123020124204750
  H26      H    0.96127  0.81151  0.18907    0.1123020124204750
  H27      H    0.02439  0.31116  0.68864    0.1123020124204750
  H28      H    0.96128  0.68844  0.31106    0.1123020124204750
  H29      H    0.47550  0.31113  0.81147    0.1123020124204750
  H30      H    0.53869  0.68854  0.18900    0.1123020124204750
  H31      H    0.47577  0.18897  0.68846    0.1123020124204750
  H32      H    0.53857  0.81162  0.31097    0.1122798646464645
  H33      H    0.81153  0.02437  0.18888    0.1123020124204750
  H34      H    0.18907  0.96127  0.81151    0.1123020124204750
  H35      H    0.68864  0.02439  0.31116    0.1123020124204750
  H36      H    0.31106  0.96127  0.68845    0.1123020124204750
  H37      H    0.81147  0.47550  0.31113    0.1123020124204750
  H38      H    0.18899  0.53869  0.68854    0.1122798646464645
  H39      H    0.68846  0.47577  0.18897    0.1123020124204750
  H40      H    0.31097  0.53857  0.81162    0.1122798646464645
  H41      H    0.31165  0.31096  0.00824    0.1123020124204750
  H42      H    0.68784  0.68956  0.00588    0.1123020124204750
  H43      H    0.18834  0.18912  0.00808    0.1123020124204750
  H44      H    0.81204  0.81062  0.00600    0.1123020124204750
  H45      H    0.18838  0.31084  0.49184    0.1123020124204750
  H46      H    0.81209  0.68946  0.49404    0.1123020124204750
  H47      H    0.31176  0.18908  0.49180    0.1123020124204750
  H48      H    0.68801  0.81064  0.49407    0.1123020124204750
  H49      H    0.00824  0.31164  0.31096    0.1123020124204750
  H50      H    0.00588  0.68784  0.68956    0.1123020124204750
  H51      H    0.00808  0.18834  0.18912    0.1123020124204750
  H52      H    0.00600  0.81204  0.81062    0.1123020124204750
  H53      H    0.49184  0.18838  0.31084    0.1123020124204750
  H54      H    0.49405  0.81209  0.68946    0.1123020124204750
  H55      H    0.49180  0.31176  0.18908    0.1123020124204750
  H56      H    0.49407  0.68800  0.81064    0.1123020124204750
  H57      H    0.31096  0.00824  0.31165    0.1123020124204750
  H58      H    0.68956  0.00588  0.68784    0.1123020124204750
  H59      H    0.18912  0.00808  0.18834    0.1123020124204750
  H60      H    0.81063  0.00600  0.81204    0.1123020124204750
  H61      H    0.31084  0.49184  0.18838    0.1123020124204750
  H62      H    0.68946  0.49404  0.81209    0.1123020124204750
  H63      H    0.18908  0.49180  0.31176    0.1123020124204750
  H64      H    0.81064  0.49407  0.68801    0.1123020124204750
  C1       C    0.15981  0.69146  0.02428    0.6471596653558059
  C2       C    0.84006  0.30919  0.96565    0.6493409842720574
  C3       C    0.34020  0.80872  0.02419    0.6472951058322960
  C4       C    0.65989  0.19093  0.96554    0.6493409842720574
  C5       C    0.34025  0.69141  0.47579    0.6477505351114730
  C6       C    0.65997  0.30914  0.53438    0.6523570096204931
  C7       C    0.15985  0.80852  0.47585    0.6568655315892107
  C8       C    0.84020  0.19083  0.53433    0.6523570096204931
  C9       C    0.02428  0.15981  0.69146    0.6471596653558059
  C10      C    0.96565  0.84006  0.30919    0.6493409842720574
  C11      C    0.02419  0.34020  0.80872    0.6472951058322960
  C12      C    0.96554  0.65989  0.19093    0.6493409842720574
  C13      C    0.47579  0.34025  0.69141    0.6477505351114730
  C14      C    0.53438  0.65997  0.30914    0.6523570096204931
  C15      C    0.47585  0.15985  0.80852    0.6468336485107337
  C16      C    0.53433  0.84021  0.19084    0.6515909260492475
  C17      C    0.69146  0.02428  0.15981    0.6471596653558059
  C18      C    0.30919  0.96565  0.84006    0.6493409842720574
  C19      C    0.80872  0.02418  0.34020    0.6472951058322960
  C20      C    0.19093  0.96554  0.65989    0.6493409842720574
  C21      C    0.69141  0.47579  0.34025    0.6477505351114730
  C22      C    0.30913  0.53438  0.65996    0.6469584959988031
  C23      C    0.80852  0.47585  0.15985    0.6468336485107337
  C24      C    0.19084  0.53433  0.84021    0.6515909260492475
  C25      C    0.21282  0.75529  0.02468    -0.1734927392674399
  C26      C    0.78724  0.24517  0.96128    -0.1719122467900577
  C27      C    0.28722  0.74488  0.02467    -0.1734927392674399
  C28      C    0.71271  0.25496  0.96126    -0.1719122467900577
  C29      C    0.28724  0.75521  0.47530    -0.1734927392674399
  C30      C    0.71281  0.24510  0.53866    -0.1728568542477061
  C31      C    0.21286  0.74471  0.47539    -0.1734927392674399
  C32      C    0.78735  0.25486  0.53861    -0.1728568542477061
  C33      C    0.02469  0.21282  0.75529    -0.1734927392674399
  C34      C    0.96128  0.78724  0.24517    -0.1719122467900577
  C35      C    0.02467  0.28722  0.74488    -0.1734927392674399
  C36      C    0.96126  0.71271  0.25496    -0.1719122467900577
  C37      C    0.47530  0.28724  0.75521    -0.1734927392674399
  C38      C    0.53866  0.71281  0.24510    -0.1728568542477061
  C39      C    0.47539  0.21286  0.74472    -0.1734927392674399
  C40      C    0.53861  0.78735  0.25486    -0.1728568542477061
  C41      C    0.75529  0.02468  0.21282    -0.1734915107539205
  C42      C    0.24517  0.96128  0.78724    -0.1719122467900577
  C43      C    0.74488  0.02467  0.28722    -0.1734927392674399
  C44      C    0.25496  0.96126  0.71271    -0.1719122467900577
  C45      C    0.75521  0.47530  0.28724    -0.1734927392674399
  C46      C    0.24510  0.53866  0.71281    -0.1728568542477061
  C47      C    0.74472  0.47539  0.21285    -0.1734927392674399
  C48      C    0.25486  0.53861  0.78735    -0.1728568542477061
  C49      C    0.19163  0.34013  0.00606    0.7019877761300700
  C50      C    0.80782  0.65990  0.00407    0.6727638424522243
  C51      C    0.30835  0.15996  0.00585    0.7019877761300700
  C52      C    0.69208  0.84031  0.00402    0.6730290800079356
  C53      C    0.30838  0.34009  0.49406    0.7019877761300700
  C54      C    0.69211  0.65987  0.49598    0.6846764752702168
  C55      C    0.19177  0.15985  0.49407    0.6945783483838606
  C56      C    0.80801  0.84019  0.49600    0.6730290800079356
  C57      C    0.00606  0.19163  0.34013    0.7030132650232650
  C58      C    0.00407  0.80782  0.65989    0.6730290800079356
  C59      C    0.00586  0.30835  0.15996    0.7019877761300700
  C60      C    0.00401  0.69208  0.84031    0.6730290800079356
  C61      C    0.49406  0.30838  0.34009    0.7019877761300700
  C62      C    0.49598  0.69211  0.65987    0.6730290800079356
  C63      C    0.49407  0.19176  0.15985    0.6945783483838606
  C64      C    0.49600  0.80800  0.84019    0.6730290800079356
  C65      C    0.34012  0.00606  0.19163    0.6945783483838606
  C66      C    0.65990  0.00407  0.80782    0.6727638424522243
  C67      C    0.15996  0.00585  0.30836    0.7019877761300700
  C68      C    0.84031  0.00401  0.69208    0.6846764752702168
  C69      C    0.34009  0.49406  0.30837    0.7019877761300700
  C70      C    0.65987  0.49598  0.69210    0.6846764752702168
  C71      C    0.15985  0.49407  0.19177    0.6945783483838606
  C72      C    0.84019  0.49600  0.80801    0.6727638424522243
  C73      C    0.25534  0.28719  0.00760    -0.1689294883677504
  C74      C    0.74430  0.71297  0.00635    -0.1685492634334783
  C75      C    0.24464  0.21289  0.00750    -0.1685492634334783
  C76      C    0.75558  0.78722  0.00638    -0.1685492634334783
  C77      C    0.24470  0.28711  0.49244    -0.1689294883677504
  C78      C    0.75565  0.71291  0.49364    -0.1685492634334783
  C79      C    0.25545  0.21281  0.49243    -0.1685492634334783
  C80      C    0.74443  0.78718  0.49365    -0.1685492634334783
  C81      C    0.00760  0.25534  0.28719    -0.1685492634334783
  C82      C    0.00635  0.74429  0.71297    -0.1685492634334783
  C83      C    0.00750  0.24464  0.21289    -0.1685492634334783
  C84      C    0.00638  0.75558  0.78722    -0.1685492634334783
  C85      C    0.49244  0.24470  0.28711    -0.1689294883677504
  C86      C    0.49364  0.75565  0.71292    -0.1685492634334783
  C87      C    0.49243  0.25545  0.21281    -0.1685492634334783
  C88      C    0.49365  0.74443  0.78718    -0.1685492634334783
  C89      C    0.28719  0.00760  0.25534    -0.1685492634334783
  C90      C    0.71297  0.00635  0.74430    -0.1685492634334783
  C91      C    0.21289  0.00749  0.24464    -0.1685492634334783
  C92      C    0.78722  0.00638  0.75559    -0.1685492634334783
  C93      C    0.28711  0.49244  0.24470    -0.1689294883677504
  C94      C    0.71292  0.49364  0.75565    -0.1689294883677504
  C95      C    0.21281  0.49243  0.25545    -0.1685492634334783
  C96      C    0.78718  0.49365  0.74444    -0.1685492634334783
  O1       O    0.20838  0.40934  0.01176    -0.5998431617233627
  O2       O    0.79110  0.59110  0.99483    -0.5255077333748164
  O3       O    0.29160  0.09074  0.01152    -0.5997149575625108
  O4       O    0.70884  0.90910  0.99473    -0.5241271443068090
  O5       O    0.29161  0.40930  0.48841    -0.5999486091337829
  O6       O    0.70880  0.59106  0.50523    -0.5255077333748164
  O7       O    0.20850  0.09064  0.48839    -0.5999486091337829
  O8       O    0.79137  0.90900  0.50526    -0.5255077333748164
  O9       O    0.01177  0.20837  0.40934    -0.5998431617233627
  O10      O    0.99482  0.79110  0.59110    -0.5255077333748164
  O11      O    0.01152  0.29160  0.09074    -0.5997149575625108
  O12      O    0.99473  0.70884  0.90910    -0.5241271443068090
  O13      O    0.48841  0.29161  0.40930    -0.5999486091337829
  O14      O    0.50523  0.70880  0.59107    -0.5255077333748164
  O15      O    0.48839  0.20850  0.09064    -0.5999486091337829
  O16      O    0.50526  0.79137  0.90900    -0.5255077333748164
  O17      O    0.40933  0.01177  0.20837    -0.5998431617233627
  O18      O    0.59110  0.99482  0.79110    -0.5255077333748164
  O19      O    0.09074  0.01152  0.29160    -0.5997149575625108
  O20      O    0.90910  0.99472  0.70884    -0.5241271443068090
  O21      O    0.40930  0.48841  0.29161    -0.5999486091337829
  O22      O    0.59107  0.50522  0.70880    -0.5255077333748164
  O23      O    0.09064  0.48839  0.20851    -0.5999486091337829
  O24      O    0.90900  0.50526  0.79137    -0.5255077333748164
  O25      O    0.18720  0.62548  0.02468    -0.5529485523109250
  O26      O    0.81248  0.37503  0.96843    -0.5614759795779456
  O27      O    0.31277  0.87469  0.02457    -0.5529485523109250
  O28      O    0.68748  0.12509  0.96827    -0.5614759795779456
  O29      O    0.31285  0.62544  0.47545    -0.5517384664942591
  O30      O    0.68752  0.37499  0.53165    -0.5614759795779456
  O31      O    0.18724  0.87449  0.47546    -0.5529485523109250
  O32      O    0.81268  0.12498  0.53158    -0.5614759795779456
  O33      O    0.02468  0.18720  0.62548    -0.5529485523109250
  O34      O    0.96843  0.81248  0.37503    -0.5614759795779456
  O35      O    0.02457  0.31277  0.87469    -0.5529485523109250
  O36      O    0.96827  0.68748  0.12509    -0.5614759795779456
  O37      O    0.47545  0.31285  0.62544    -0.5517384664942591
  O38      O    0.53165  0.68752  0.37499    -0.5614759795779456
  O39      O    0.47546  0.18724  0.87449    -0.5529485523109250
  O40      O    0.53158  0.81268  0.12498    -0.5614759795779456
  O41      O    0.62548  0.02468  0.18721    -0.5529485523109250
  O42      O    0.37503  0.96843  0.81248    -0.5614759795779456
  O43      O    0.87469  0.02456  0.31277    -0.5529485523109250
  O44      O    0.12509  0.96826  0.68748    -0.5614759795779456
  O45      O    0.62544  0.47545  0.31285    -0.5517384664942591
  O46      O    0.37498  0.53165  0.68751    -0.5614759795779456
  O47      O    0.87449  0.47546  0.18724    -0.5529485523109250
  O48      O    0.12498  0.53158  0.81268    -0.5614759795779456
  O49      O    0.18701  0.50258  0.12630    -0.5529485523109250
  O50      O    0.81284  0.49023  0.87371    -0.5168510947899900
  O51      O    0.31295  0.99760  0.12617    -0.5530938679100836
  O52      O    0.68717  0.00991  0.87354    -0.5168510947899900
  O53      O    0.31295  0.50255  0.37385    -0.5530938679100836
  O54      O    0.68717  0.49020  0.62638    -0.5168510947899900
  O55      O    0.18713  0.99737  0.37381    -0.5530938679100836
  O56      O    0.81307  0.00982  0.62634    -0.5163446742169691
  O57      O    0.12630  0.18701  0.50258    -0.5529485523109250
  O58      O    0.87371  0.81284  0.49022    -0.5168510947899900
  O59      O    0.12617  0.31295  0.99760    -0.5530938679100836
  O60      O    0.87354  0.68717  0.00991    -0.5168510947899900
  O61      O    0.37385  0.31295  0.50255    -0.5530938679100836
  O62      O    0.62638  0.68716  0.49020    -0.5168510947899900
  O63      O    0.37381  0.18713  0.99737    -0.5530938679100836
  O64      O    0.62634  0.81307  0.00982    -0.5163446742169691
  O65      O    0.50258  0.12630  0.18701    -0.5529485523109250
  O66      O    0.49023  0.87371  0.81284    -0.5168510947899900
  O67      O    0.99760  0.12616  0.31295    -0.5530938679100836
  O68      O    0.00991  0.87354  0.68717    -0.5168510947899900
  O69      O    0.50255  0.37385  0.31295    -0.5530938679100836
  O70      O    0.49020  0.62638  0.68716    -0.5168510947899900
  O71      O    0.99737  0.37381  0.18713    -0.5530938679100836
  O72      O    0.00982  0.62634  0.81307    -0.5163446742169691
  O73      O    0.20762  0.53100  0.90959    -0.5618400729762227
  O74      O    0.79161  0.47615  0.09044    -0.5513775663152981
  O75      O    0.29243  0.96903  0.90943    -0.5615915037407860
  O76      O    0.70835  0.02403  0.09040    -0.5513775663152981
  O77      O    0.29238  0.53103  0.59059    -0.5618400729762227
  O78      O    0.70831  0.47607  0.40965    -0.5513775663152981
  O79      O    0.20768  0.96889  0.59052    -0.5615915037407860
  O80      O    0.79189  0.02388  0.40961    -0.5513775663152981
  O81      O    0.90958  0.20762  0.53100    -0.5618400729762227
  O82      O    0.09044  0.79160  0.47615    -0.5513775663152981
  O83      O    0.90943  0.29243  0.96903    -0.5615915037407860
  O84      O    0.09040  0.70835  0.02403    -0.5513775663152981
  O85      O    0.59059  0.29238  0.53103    -0.5618400729762227
  O86      O    0.40965  0.70831  0.47607    -0.5513775663152981
  O87      O    0.59052  0.20768  0.96889    -0.5615915037407860
  O88      O    0.40961  0.79189  0.02389    -0.5513775663152981
  O89      O    0.53100  0.90959  0.20762    -0.5618400729762227
  O90      O    0.47615  0.09044  0.79161    -0.5513775663152981
  O91      O    0.96903  0.90943  0.29243    -0.5615915037407860
  O92      O    0.02403  0.09040  0.70835    -0.5513775663152981
  O93      O    0.53103  0.59059  0.29238    -0.5618400729762227
  O94      O    0.47607  0.40965  0.70831    -0.5513775663152981
  O95      O    0.96889  0.59052  0.20768    -0.5615915037407860
  O96      O    0.02389  0.40961  0.79189    -0.5513775663152981
  O97      O    0.05746  0.44252  0.05759    -1.0941409766241701
  O98      O    0.92121  0.57877  0.92142    -1.1754621423915010
  O99      O    0.44252  0.05758  0.05746    -1.0941409766241701
  O100     O    0.57877  0.92142  0.92121    -1.1754621423915010
  O101     O    0.44251  0.44251  0.44251    -1.0941409766241701
  O102     O    0.57876  0.57876  0.57876    -1.1754621423915010
  O103     O    0.05759  0.05746  0.44252    -1.0941409766241701
  O104     O    0.92142  0.92121  0.57877    -1.1754621423915010
  O105     O    0.05713  0.56850  0.95283    -1.0941409766241701
  O106     O    0.92192  0.40760  0.06375    -1.1703152850017333
  O107     O    0.44285  0.93175  0.95255    -1.0941409766241701
  O108     O    0.57805  0.09254  0.06363    -1.1703152850017333
  O109     O    0.44289  0.56844  0.54738    -1.0941409766241701
  O110     O    0.57801  0.40758  0.43636    -1.1703152850017333
  O111     O    0.05718  0.93153  0.54740    -1.0941409766241701
  O112     O    0.92218  0.09241  0.43633    -1.1733348688564325
  O113     O    0.95283  0.05713  0.56850    -1.0941409766241701
  O114     O    0.06375  0.92192  0.40760    -1.1703152850017333
  O115     O    0.95255  0.44286  0.93175    -1.0941409766241701
  O116     O    0.06363  0.57805  0.09254    -1.1703152850017333
  O117     O    0.54738  0.44289  0.56844    -1.0941409766241701
  O118     O    0.43636  0.57801  0.40758    -1.1703152850017333
  O119     O    0.54740  0.05718  0.93153    -1.0941409766241701
  O120     O    0.43632  0.92218  0.09241    -1.1733348688564325
  O121     O    0.56849  0.95283  0.05713    -1.0941409766241701
  O122     O    0.40760  0.06375  0.92192    -1.1703152850017333
  O123     O    0.93175  0.95254  0.44286    -1.0941409766241701
  O124     O    0.09254  0.06363  0.57805    -1.1703152850017333
  O125     O    0.56844  0.54738  0.44290    -1.0941409766241701
  O126     O    0.40758  0.43636  0.57801    -1.1703152850017333
  O127     O    0.93153  0.54740  0.05718    -1.0941409766241701
  O128     O    0.09241  0.43633  0.92218    -1.1733348688564325
  Zr1      Zr    0.13804  0.51231  0.01270     2.2375391778361911
  Zr2      Zr    0.86136  0.48789  0.98710     2.2275624084723975
  Zr3      Zr    0.36196  0.98782  0.01254     2.2375391778361911
  Zr4      Zr    0.63860  0.01226  0.98696     2.2275624084723975
  Zr5      Zr    0.36198  0.51230  0.48746     2.2375391778361911
  Zr6      Zr    0.63852  0.48787  0.51302     2.2275624084723975
  Zr7      Zr    0.13808  0.98767  0.48744     2.2375391778361911
  Zr8      Zr    0.86188  0.01213  0.51297     2.2275624084723975
  Zr9      Zr    0.01270  0.13804  0.51231     2.2375391778361911
  Zr10     Zr    0.98710  0.86135  0.48789     2.2275624084723975
  Zr11     Zr    0.01254  0.36196  0.98783     2.2375391778361911
  Zr12     Zr    0.98696  0.63860  0.01226     2.2275624084723975
  Zr13     Zr    0.48746  0.36198  0.51230     2.2375391778361911
  Zr14     Zr    0.51302  0.63852  0.48787     2.2275624084723975
  Zr15     Zr    0.48745  0.13808  0.98767     2.2375391778361911
  Zr16     Zr    0.51297  0.86188  0.01213     2.2275624084723975
  Zr17     Zr    0.51231  0.01270  0.13804     2.2375391778361911
  Zr18     Zr    0.48790  0.98710  0.86136     2.2275624084723975
  Zr19     Zr    0.98782  0.01254  0.36196     2.2375391778361911
  Zr20     Zr    0.01226  0.98695  0.63860     2.2275624084723975
  Zr21     Zr    0.51230  0.48746  0.36198     2.2375391778361911
  Zr22     Zr    0.48787  0.51302  0.63852     2.2275624084723975
  Zr23     Zr    0.98767  0.48744  0.13808     2.2375391778361911
  Zr24     Zr    0.01213  0.51297  0.86188     2.2275624084723975
