data_functionalizedCrystal
_audit_creation_method	'EQeq! by Chris Wilmer'
_symmetry_space_group_name_H-M	'P1'
_symmetry_Int_Tables_number	1
_symmetry_cell_setting	triclinic
_symmetry_equiv_pos_as_xyz 'x,y,z'
_cell_length_a	20.9784
_cell_length_b	20.9784
_cell_length_c	20.9784
_cell_angle_alpha	90
_cell_angle_beta	90
_cell_angle_gamma	90
loop_
_atom_site_label
_atom_site_type_symbol
_atom_site_fract_x
_atom_site_fract_y
_atom_site_fract_z
_atom_site_charge
Mof_H 	H 	0.49355	0.28	0.36445	0.033
Mof_C 	C 	0.4935	0.26745	0.31435	0.002
Mof_O 	O 	0.4974	0.17075	0.40545	-0.664
Mof_H 	H 	0.59377	0.09377	0.40623	0.241
Mof_C 	C 	0.0041	0.15235	0.15235	0.524
Mof_C 	C 	0.4938	0.20285	0.29715	-0.151
Mof_O 	O 	0.93273	0.06727	0.06727	-1.292
Mof_O 	O 	0.04943	0.45057	0.45057	-1.493
Mof_Zr	Zr	1.36711e-33	0.1204	-0	3.099
Mof_H 	H 	0.28	0.50645	0.63555	0.031
Mof_C 	C 	0.26745	0.5065	0.68565	0.018
Mof_O 	O 	0.17075	0.5026	0.59455	-0.664
Mof_H 	H 	0.09377	0.40623	0.59377	0.241
Mof_C 	C 	0.15235	0.9959	0.84765	0.472
Mof_C 	C 	0.20285	0.5062	0.70285	-0.154
Mof_O 	O 	0.06727	0.06727	0.93273	-1.292
Mof_O 	O 	0.45057	0.95057	0.54943	-1.21
Mof_Zr	Zr	0.1204	0	-0	3.099
Mof_H 	H 	0.50645	0.72	0.36445	0.041
Mof_C 	C 	0.5065	0.73255	0.31435	-0.012
Mof_O 	O 	0.5026	0.82925	0.40545	-0.648
Mof_H 	H 	0.40623	0.90623	0.40623	0.346
Mof_C 	C 	0.9959	0.84765	0.15235	0.472
Mof_C 	C 	0.5062	0.79715	0.29715	-0.094
Mof_O 	O 	0.06727	0.93273	0.06727	-1.292
Mof_O 	O 	0.95057	0.54943	0.45057	-1.21
Mof_Zr	Zr	1.09369e-32	0.8796	-0	3.096
Mof_H 	H 	0.72	0.49355	0.63555	0.043
Mof_C 	C 	0.73255	0.4935	0.68565	0.012
Mof_O 	O 	0.82925	0.4974	0.59455	-0.644
Mof_H 	H 	0.90623	0.59377	0.59377	0.362
Mof_C 	C 	0.84765	0.0041	0.84765	0.452
Mof_C 	C 	0.79715	0.4938	0.70285	-0.09
Mof_O 	O 	0.93273	0.93273	0.93273	-0.737
Mof_O 	O 	0.54943	0.04943	0.54943	-1.493
Mof_Zr	Zr	0.8796	0	-0	3.096
Mof_H 	H 	0.49355	0.72	0.63555	0.044
Mof_C 	C 	0.4935	0.73255	0.68565	0.013
Mof_O 	O 	0.4974	0.82925	0.59455	-0.643
Mof_H 	H 	0.59377	0.90623	0.59377	0.363
Mof_C 	C 	0.0041	0.84765	0.84765	0.453
Mof_C 	C 	0.4938	0.79715	0.70285	-0.089
Mof_O 	O 	0.04943	0.54943	0.54943	-1.492
Mof_H 	H 	0.72	0.50645	0.36445	0.042
Mof_C 	C 	0.73255	0.5065	0.31435	-0.011
Mof_O 	O 	0.82925	0.5026	0.40545	-0.647
Mof_H 	H 	0.90623	0.40623	0.40623	0.347
Mof_C 	C 	0.84765	0.9959	0.15235	0.473
Mof_C 	C 	0.79715	0.5062	0.29715	-0.093
Mof_O 	O 	0.54943	0.95057	0.45057	-1.209
Mof_H 	H 	0.50645	0.28	0.63555	0.032
Mof_C 	C 	0.5065	0.26745	0.68565	0.019
Mof_O 	O 	0.5026	0.17075	0.59455	-0.663
Mof_H 	H 	0.40623	0.09377	0.59377	0.242
Mof_C 	C 	0.9959	0.15235	0.84765	0.473
Mof_C 	C 	0.5062	0.20285	0.70285	-0.153
Mof_O 	O 	0.95057	0.45057	0.54943	-1.209
Mof_H 	H 	0.28	0.49355	0.36445	0.034
Mof_C 	C 	0.26745	0.4935	0.31435	0.003
Mof_O 	O 	0.17075	0.4974	0.40545	-0.663
Mof_H 	H 	0.09377	0.59377	0.40623	0.242
Mof_C 	C 	0.15235	0.0041	0.15235	0.525
Mof_C 	C 	0.20285	0.4938	0.29715	-0.15
Mof_O 	O 	0.45057	0.04943	0.45057	-1.492
Mof_H 	H 	0.36445	0.49355	0.28	0.034
Mof_C 	C 	0.31435	0.4935	0.26745	0.003
Mof_O 	O 	0.40545	0.4974	0.17075	-0.663
Mof_H 	H 	0.40623	0.59377	0.09377	0.242
Mof_C 	C 	0.29715	0.4938	0.20285	-0.15
Mof_Zr	Zr	1.81854e-33	0	0.1204	3.1
Mof_H 	H 	0.49355	0.63555	0.72	0.044
Mof_C 	C 	0.4935	0.68565	0.73255	0.013
Mof_O 	O 	0.4974	0.59455	0.82925	-0.643
Mof_H 	H 	0.59377	0.59377	0.90623	0.363
Mof_C 	C 	0.4938	0.70285	0.79715	-0.089
Mof_Zr	Zr	1.42348e-32	0	0.8796	3.097
Mof_H 	H 	0.63555	0.50645	0.28	0.032
Mof_C 	C 	0.68565	0.5065	0.26745	0.019
Mof_O 	O 	0.59455	0.5026	0.17075	-0.663
Mof_H 	H 	0.59377	0.40623	0.09377	0.242
Mof_C 	C 	0.70285	0.5062	0.20285	-0.153
Mof_H 	H 	0.50645	0.36445	0.72	0.042
Mof_C 	C 	0.5065	0.31435	0.73255	-0.011
Mof_O 	O 	0.5026	0.40545	0.82925	-0.647
Mof_H 	H 	0.40623	0.40623	0.90623	0.347
Mof_C 	C 	0.5062	0.29715	0.79715	-0.093
Mof_H 	H 	0.36445	0.50645	0.72	0.042
Mof_C 	C 	0.31435	0.5065	0.73255	-0.011
Mof_O 	O 	0.40545	0.5026	0.82925	-0.647
Mof_C 	C 	0.29715	0.5062	0.79715	-0.093
Mof_H 	H 	0.50645	0.63555	0.28	0.032
Mof_C 	C 	0.5065	0.68565	0.26745	0.019
Mof_O 	O 	0.5026	0.59455	0.17075	-0.663
Mof_C 	C 	0.5062	0.70285	0.20285	-0.153
Mof_H 	H 	0.63555	0.49355	0.72	0.044
Mof_C 	C 	0.68565	0.4935	0.73255	0.013
Mof_O 	O 	0.59455	0.4974	0.82925	-0.643
Mof_C 	C 	0.70285	0.4938	0.79715	-0.089
Mof_H 	H 	0.49355	0.36445	0.28	0.034
Mof_C 	C 	0.4935	0.31435	0.26745	0.003
Mof_O 	O 	0.4974	0.40545	0.17075	-0.663
Mof_C 	C 	0.4938	0.29715	0.20285	-0.15
Mof_H 	H 	0.28	0.36445	0.49355	0.034
Mof_C 	C 	0.26745	0.31435	0.4935	0.003
Mof_O 	O 	0.17075	0.40545	0.4974	-0.663
Mof_C 	C 	0.15235	0.15235	0.0041	0.525
Mof_C 	C 	0.20285	0.29715	0.4938	-0.15
Mof_O 	O 	0.45057	0.45057	0.04943	-1.492
Mof_H 	H 	0.28	0.63555	0.50645	0.032
Mof_C 	C 	0.26745	0.68565	0.5065	0.019
Mof_O 	O 	0.17075	0.59455	0.5026	-0.663
Mof_C 	C 	0.15235	0.84765	0.9959	0.473
Mof_C 	C 	0.20285	0.70285	0.5062	-0.153
Mof_O 	O 	0.45057	0.54943	0.95057	-1.209
Mof_H 	H 	0.63555	0.72	0.49355	0.044
Mof_C 	C 	0.68565	0.73255	0.4935	0.013
Mof_O 	O 	0.59455	0.82925	0.4974	-0.643
Mof_C 	C 	0.84765	0.84765	0.0041	0.453
Mof_C 	C 	0.70285	0.79715	0.4938	-0.089
Mof_O 	O 	0.54943	0.54943	0.04943	-1.492
Mof_H 	H 	0.72	0.36445	0.50645	0.042
Mof_C 	C 	0.73255	0.31435	0.5065	-0.011
Mof_O 	O 	0.82925	0.40545	0.5026	-0.647
Mof_C 	C 	0.84765	0.15235	0.9959	0.473
Mof_C 	C 	0.79715	0.29715	0.5062	-0.093
Mof_O 	O 	0.54943	0.45057	0.95057	-1.209
Mof_H 	H 	0.36445	0.28	0.49355	0.034
Mof_C 	C 	0.31435	0.26745	0.4935	0.003
Mof_O 	O 	0.40545	0.17075	0.4974	-0.663
Mof_C 	C 	0.29715	0.20285	0.4938	-0.15
Mof_H 	H 	0.72	0.63555	0.49355	0.044
Mof_C 	C 	0.73255	0.68565	0.4935	0.013
Mof_O 	O 	0.82925	0.59455	0.4974	-0.643
Mof_C 	C 	0.79715	0.70285	0.4938	-0.089
Mof_H 	H 	0.63555	0.28	0.50645	0.032
Mof_C 	C 	0.68565	0.26745	0.5065	0.019
Mof_O 	O 	0.59455	0.17075	0.5026	-0.663
Mof_C 	C 	0.70285	0.20285	0.5062	-0.153
Mof_H 	H 	0.36445	0.72	0.50645	0.042
Mof_C 	C 	0.31435	0.73255	0.5065	-0.011
Mof_O 	O 	0.40545	0.82925	0.5026	-0.647
Mof_C 	C 	0.29715	0.79715	0.5062	-0.093
Mof_H 	H 	0.49355	0.78	0.86445	0.12
Mof_C 	C 	0.4935	0.76745	0.81435	0.031
Mof_O 	O 	0.4974	0.67075	0.90545	-0.534
Mof_C 	C 	0.0041	0.65235	0.65235	0.499
Mof_O 	O 	0.93273	0.56727	0.56727	-1.034
Mof_O 	O 	0.04943	0.95057	0.95057	-1.18
Mof_Zr	Zr	7.34314e-33	0.6204	0.5	3.154
Mof_H 	H 	0.28	0.00645	0.13555	-0.097
Mof_C 	C 	0.26745	0.0065	0.18565	-0.024
Mof_O 	O 	0.17075	0.0026	0.09455	-0.918
Mof_H 	H 	0.09377	0.90623	0.09377	0.24
Mof_C 	C 	0.15235	0.4959	0.34765	0.503
Mof_C 	C 	0.20285	0.0062	0.20285	-0.241
Mof_O 	O 	0.06727	0.56727	0.43273	-1.321
Mof_Zr	Zr	0.1204	0.5	0.5	3.212
Mof_H 	H 	0.50645	0.22	0.86445	0.073
Mof_C 	C 	0.5065	0.23255	0.81435	-0.013
Mof_O 	O 	0.5026	0.32925	0.90545	-0.55
Mof_C 	C 	0.9959	0.34765	0.65235	0.477
Mof_O 	O 	0.06727	0.43273	0.56727	-1.321
Mof_O 	O 	0.95057	0.04943	0.95057	-1.18
Mof_Zr	Zr	-3.59374e-33	0.3796	0.5	3.153
Mof_H 	H 	0.72	0.99355	0.13555	0.061
Mof_C 	C 	0.73255	0.9935	0.18565	0.029
Mof_O 	O 	0.82925	0.9974	0.09455	-0.564
Mof_H 	H 	0.90623	0.09377	0.09377	0.24
Mof_C 	C 	0.84765	0.5041	0.34765	0.464
Mof_C 	C 	0.79715	0.9938	0.20285	-0.054
Mof_O 	O 	0.93273	0.43273	0.43273	-1.03
Mof_Zr	Zr	0.8796	0.5	0.5	3.208
Mof_H 	H 	0.49355	0.22	0.13555	-0.041
Mof_C 	C 	0.4935	0.23255	0.18565	-0.015
Mof_O 	O 	0.4974	0.32925	0.09455	-0.759
Mof_C 	C 	0.0041	0.34765	0.34765	0.488
Mof_O 	O 	0.04943	0.04943	0.04943	-1.733
Mof_H 	H 	0.72	0.00645	0.86445	0.028
Mof_C 	C 	0.73255	0.0065	0.81435	-0.028
Mof_O 	O 	0.82925	0.0026	0.90545	-0.693
Mof_H 	H 	0.90623	0.90623	0.90623	0.462
Mof_C 	C 	0.84765	0.4959	0.65235	0.473
Mof_C 	C 	0.79715	0.0062	0.79715	-0.123
Mof_H 	H 	0.50645	0.78	0.13555	0.002
Mof_C 	C 	0.5065	0.76745	0.18565	0.021
Mof_O 	O 	0.5026	0.67075	0.09455	-0.746
Mof_C 	C 	0.9959	0.65235	0.34765	0.477
Mof_O 	O 	0.95057	0.95057	0.04943	-1.18
Mof_H 	H 	0.28	0.99355	0.86445	0.166
Mof_C 	C 	0.26745	0.9935	0.81435	0.045
Mof_O 	O 	0.17075	0.9974	0.90545	-0.374
Mof_H 	H 	0.09377	0.09377	0.90623	0.24
Mof_C 	C 	0.15235	0.5041	0.65235	0.507
Mof_C 	C 	0.20285	0.9938	0.79715	-0.054
Mof_H 	H 	0.36445	0.99355	0.78	0.136
Mof_C 	C 	0.31435	0.9935	0.76745	0.048
Mof_O 	O 	0.40545	0.9974	0.67075	-0.469
Mof_C 	C 	0.29715	0.9938	0.70285	-0.056
Mof_Zr	Zr	7.79457e-33	0.5	0.6204	3.154
Mof_H 	H 	0.49355	0.13555	0.22	-0.041
Mof_C 	C 	0.4935	0.18565	0.23255	-0.015
Mof_O 	O 	0.4974	0.09455	0.32925	-0.759
Mof_Zr	Zr	-4.04517e-33	0.5	0.3796	3.153
Mof_H 	H 	0.63555	0.00645	0.78	-0.013
Mof_C 	C 	0.68565	0.0065	0.76745	0.005
Mof_O 	O 	0.59455	0.0026	0.67075	-0.808
Mof_C 	C 	0.70285	0.0062	0.70285	-0.184
Mof_H 	H 	0.50645	0.86445	0.22	0.073
Mof_C 	C 	0.5065	0.81435	0.23255	-0.013
Mof_O 	O 	0.5026	0.90545	0.32925	-0.55
Mof_H 	H 	0.36445	0.00645	0.22	-0.058
Mof_C 	C 	0.31435	0.0065	0.23255	-0.054
Mof_O 	O 	0.40545	0.0026	0.32925	-0.825
Mof_C 	C 	0.29715	0.0062	0.29715	-0.186
Mof_H 	H 	0.50645	0.13555	0.78	0.002
Mof_C 	C 	0.5065	0.18565	0.76745	0.021
Mof_O 	O 	0.5026	0.09455	0.67075	-0.746
Mof_H 	H 	0.63555	0.99355	0.22	0.091
Mof_C 	C 	0.68565	0.9935	0.23255	0.028
Mof_O 	O 	0.59455	0.9974	0.32925	-0.481
Mof_C 	C 	0.70285	0.9938	0.29715	-0.056
Mof_H 	H 	0.49355	0.86445	0.78	0.12
Mof_C 	C 	0.4935	0.81435	0.76745	0.031
Mof_O 	O 	0.4974	0.90545	0.67075	-0.534
Mof_H 	H 	0.28	0.86445	0.99355	0.166
Mof_C 	C 	0.26745	0.81435	0.9935	0.045
Mof_O 	O 	0.17075	0.90545	0.9974	-0.374
Mof_C 	C 	0.15235	0.65235	0.5041	0.507
Mof_C 	C 	0.20285	0.79715	0.9938	-0.054
Mof_H 	H 	0.28	0.13555	0.00645	-0.097
Mof_C 	C 	0.26745	0.18565	0.0065	-0.024
Mof_O 	O 	0.17075	0.09455	0.0026	-0.918
Mof_C 	C 	0.15235	0.34765	0.4959	0.503
Mof_C 	C 	0.20285	0.20285	0.0062	-0.241
Mof_H 	H 	0.63555	0.22	0.99355	0.091
Mof_C 	C 	0.68565	0.23255	0.9935	0.028
Mof_O 	O 	0.59455	0.32925	0.9974	-0.481
Mof_C 	C 	0.84765	0.34765	0.5041	0.464
Mof_C 	C 	0.70285	0.29715	0.9938	-0.056
Mof_H 	H 	0.72	0.86445	0.00645	0.028
Mof_C 	C 	0.73255	0.81435	0.0065	-0.028
Mof_O 	O 	0.82925	0.90545	0.0026	-0.693
Mof_C 	C 	0.84765	0.65235	0.4959	0.473
Mof_C 	C 	0.79715	0.79715	0.0062	-0.123
Mof_H 	H 	0.36445	0.78	0.99355	0.136
Mof_C 	C 	0.31435	0.76745	0.9935	0.048
Mof_O 	O 	0.40545	0.67075	0.9974	-0.469
Mof_C 	C 	0.29715	0.70285	0.9938	-0.056
Mof_H 	H 	0.72	0.13555	0.99355	0.061
Mof_C 	C 	0.73255	0.18565	0.9935	0.029
Mof_O 	O 	0.82925	0.09455	0.9974	-0.564
Mof_C 	C 	0.79715	0.20285	0.9938	-0.054
Mof_H 	H 	0.63555	0.78	0.00645	-0.013
Mof_C 	C 	0.68565	0.76745	0.0065	0.005
Mof_O 	O 	0.59455	0.67075	0.0026	-0.808
Mof_C 	C 	0.70285	0.70285	0.0062	-0.184
Mof_H 	H 	0.36445	0.22	0.00645	-0.058
Mof_C 	C 	0.31435	0.23255	0.0065	-0.054
Mof_O 	O 	0.40545	0.32925	0.0026	-0.825
Mof_C 	C 	0.29715	0.29715	0.0062	-0.186
Mof_H 	H 	0.99355	0.28	0.86445	0.166
Mof_C 	C 	0.9935	0.26745	0.81435	0.045
Mof_O 	O 	0.9974	0.17075	0.90545	-0.374
Mof_C 	C 	0.5041	0.15235	0.65235	0.507
Mof_C 	C 	0.9938	0.20285	0.79715	-0.054
Mof_O 	O 	0.43273	0.06727	0.56727	-1.321
Mof_Zr	Zr	0.5	0.1204	0.5	3.212
Mof_H 	H 	0.78	0.50645	0.13555	0.002
Mof_C 	C 	0.76745	0.5065	0.18565	0.021
Mof_O 	O 	0.67075	0.5026	0.09455	-0.746
Mof_C 	C 	0.65235	0.9959	0.34765	0.477
Mof_O 	O 	0.56727	0.06727	0.43273	-1.321
Mof_Zr	Zr	0.6204	0	0.5	3.154
Mof_H 	H 	0.00645	0.72	0.86445	0.028
Mof_C 	C 	0.0065	0.73255	0.81435	-0.028
Mof_O 	O 	0.0026	0.82925	0.90545	-0.693
Mof_C 	C 	0.4959	0.84765	0.65235	0.473
Mof_C 	C 	0.0062	0.79715	0.79715	-0.123
Mof_O 	O 	0.56727	0.93273	0.56727	-1.034
Mof_Zr	Zr	0.5	0.8796	0.5	3.208
Mof_H 	H 	0.22	0.49355	0.13555	-0.041
Mof_C 	C 	0.23255	0.4935	0.18565	-0.015
Mof_O 	O 	0.32925	0.4974	0.09455	-0.759
Mof_C 	C 	0.34765	0.0041	0.34765	0.488
Mof_O 	O 	0.43273	0.93273	0.43273	-1.03
Mof_Zr	Zr	0.3796	0	0.5	3.153
Mof_H 	H 	0.99355	0.72	0.13555	0.061
Mof_C 	C 	0.9935	0.73255	0.18565	0.029
Mof_O 	O 	0.9974	0.82925	0.09455	-0.564
Mof_C 	C 	0.5041	0.84765	0.34765	0.464
Mof_C 	C 	0.9938	0.79715	0.20285	-0.054
Mof_H 	H 	0.22	0.50645	0.86445	0.073
Mof_C 	C 	0.23255	0.5065	0.81435	-0.013
Mof_O 	O 	0.32925	0.5026	0.90545	-0.55
Mof_C 	C 	0.34765	0.9959	0.65235	0.477
Mof_H 	H 	0.00645	0.28	0.13555	-0.097
Mof_C 	C 	0.0065	0.26745	0.18565	-0.024
Mof_O 	O 	0.0026	0.17075	0.09455	-0.918
Mof_C 	C 	0.4959	0.15235	0.34765	0.503
Mof_C 	C 	0.0062	0.20285	0.20285	-0.241
Mof_H 	H 	0.78	0.49355	0.86445	0.12
Mof_C 	C 	0.76745	0.4935	0.81435	0.031
Mof_O 	O 	0.67075	0.4974	0.90545	-0.534
Mof_C 	C 	0.65235	0.0041	0.65235	0.499
Mof_H 	H 	0.86445	0.49355	0.78	0.12
Mof_C 	C 	0.81435	0.4935	0.76745	0.031
Mof_O 	O 	0.90545	0.4974	0.67075	-0.534
Mof_Zr	Zr	0.5	0	0.6204	3.154
Mof_H 	H 	0.99355	0.63555	0.22	0.091
Mof_C 	C 	0.9935	0.68565	0.23255	0.028
Mof_O 	O 	0.9974	0.59455	0.32925	-0.481
Mof_C 	C 	0.9938	0.70285	0.29715	-0.056
Mof_Zr	Zr	0.5	0	0.3796	3.153
Mof_H 	H 	0.13555	0.50645	0.78	0.002
Mof_C 	C 	0.18565	0.5065	0.76745	0.021
Mof_O 	O 	0.09455	0.5026	0.67075	-0.746
Mof_H 	H 	0.00645	0.36445	0.22	-0.058
Mof_C 	C 	0.0065	0.31435	0.23255	-0.054
Mof_O 	O 	0.0026	0.40545	0.32925	-0.825
Mof_C 	C 	0.0062	0.29715	0.29715	-0.186
Mof_H 	H 	0.86445	0.50645	0.22	0.073
Mof_C 	C 	0.81435	0.5065	0.23255	-0.013
Mof_O 	O 	0.90545	0.5026	0.32925	-0.55
Mof_H 	H 	0.00645	0.63555	0.78	-0.013
Mof_C 	C 	0.0065	0.68565	0.76745	0.005
Mof_O 	O 	0.0026	0.59455	0.67075	-0.808
Mof_C 	C 	0.0062	0.70285	0.70285	-0.184
Mof_H 	H 	0.13555	0.49355	0.22	-0.041
Mof_C 	C 	0.18565	0.4935	0.23255	-0.015
Mof_O 	O 	0.09455	0.4974	0.32925	-0.759
Mof_H 	H 	0.99355	0.36445	0.78	0.136
Mof_C 	C 	0.9935	0.31435	0.76745	0.048
Mof_O 	O 	0.9974	0.40545	0.67075	-0.469
Mof_C 	C 	0.9938	0.29715	0.70285	-0.056
Mof_H 	H 	0.78	0.36445	0.99355	0.136
Mof_C 	C 	0.76745	0.31435	0.9935	0.048
Mof_O 	O 	0.67075	0.40545	0.9974	-0.469
Mof_C 	C 	0.65235	0.15235	0.5041	0.507
Mof_H 	H 	0.78	0.63555	0.00645	-0.013
Mof_C 	C 	0.76745	0.68565	0.0065	0.005
Mof_O 	O 	0.67075	0.59455	0.0026	-0.808
Mof_C 	C 	0.65235	0.84765	0.4959	0.473
Mof_H 	H 	0.13555	0.72	0.99355	0.061
Mof_C 	C 	0.18565	0.73255	0.9935	0.029
Mof_O 	O 	0.09455	0.82925	0.9974	-0.564
Mof_C 	C 	0.34765	0.84765	0.5041	0.464
Mof_H 	H 	0.22	0.36445	0.00645	-0.058
Mof_C 	C 	0.23255	0.31435	0.0065	-0.054
Mof_O 	O 	0.32925	0.40545	0.0026	-0.825
Mof_C 	C 	0.34765	0.15235	0.4959	0.503
Mof_H 	H 	0.86445	0.28	0.99355	0.166
Mof_C 	C 	0.81435	0.26745	0.9935	0.045
Mof_O 	O 	0.90545	0.17075	0.9974	-0.374
Mof_H 	H 	0.22	0.63555	0.99355	0.091
Mof_C 	C 	0.23255	0.68565	0.9935	0.028
Mof_O 	O 	0.32925	0.59455	0.9974	-0.481
Mof_H 	H 	0.13555	0.28	0.00645	-0.097
Mof_C 	C 	0.18565	0.26745	0.0065	-0.024
Mof_O 	O 	0.09455	0.17075	0.0026	-0.918
Mof_H 	H 	0.86445	0.72	0.00645	0.028
Mof_C 	C 	0.81435	0.73255	0.0065	-0.028
Mof_O 	O 	0.90545	0.82925	0.0026	-0.693
Mof_H 	H 	0.99355	0.78	0.36445	0.136
Mof_C 	C 	0.9935	0.76745	0.31435	0.048
Mof_O 	O 	0.9974	0.67075	0.40545	-0.469
Mof_C 	C 	0.5041	0.65235	0.15235	0.507
Mof_O 	O 	0.43273	0.56727	0.06727	-1.321
Mof_Zr	Zr	0.5	0.6204	-0	3.154
Mof_H 	H 	0.78	0.00645	0.63555	-0.013
Mof_C 	C 	0.76745	0.0065	0.68565	0.005
Mof_O 	O 	0.67075	0.0026	0.59455	-0.808
Mof_C 	C 	0.65235	0.4959	0.84765	0.473
Mof_O 	O 	0.56727	0.56727	0.93273	-1.034
Mof_Zr	Zr	0.6204	0.5	-0	3.154
Mof_H 	H 	0.00645	0.22	0.36445	-0.058
Mof_C 	C 	0.0065	0.23255	0.31435	-0.054
Mof_O 	O 	0.0026	0.32925	0.40545	-0.825
Mof_C 	C 	0.4959	0.34765	0.15235	0.503
Mof_O 	O 	0.56727	0.43273	0.06727	-1.321
Mof_Zr	Zr	0.5	0.3796	-0	3.153
Mof_H 	H 	0.22	0.99355	0.63555	0.091
Mof_C 	C 	0.23255	0.9935	0.68565	0.028
Mof_O 	O 	0.32925	0.9974	0.59455	-0.481
Mof_C 	C 	0.34765	0.5041	0.84765	0.464
Mof_O 	O 	0.43273	0.43273	0.93273	-1.03
Mof_Zr	Zr	0.3796	0.5	-0	3.153
Mof_H 	H 	0.99355	0.22	0.63555	0.091
Mof_C 	C 	0.9935	0.23255	0.68565	0.028
Mof_O 	O 	0.9974	0.32925	0.59455	-0.481
Mof_C 	C 	0.5041	0.34765	0.84765	0.464
Mof_H 	H 	0.22	0.00645	0.36445	-0.058
Mof_C 	C 	0.23255	0.0065	0.31435	-0.054
Mof_O 	O 	0.32925	0.0026	0.40545	-0.825
Mof_C 	C 	0.34765	0.4959	0.15235	0.503
Mof_H 	H 	0.00645	0.78	0.63555	-0.013
Mof_C 	C 	0.0065	0.76745	0.68565	0.005
Mof_O 	O 	0.0026	0.67075	0.59455	-0.808
Mof_C 	C 	0.4959	0.65235	0.84765	0.473
Mof_H 	H 	0.78	0.99355	0.36445	0.136
Mof_C 	C 	0.76745	0.9935	0.31435	0.048
Mof_O 	O 	0.67075	0.9974	0.40545	-0.469
Mof_C 	C 	0.65235	0.5041	0.15235	0.507
Mof_H 	H 	0.86445	0.99355	0.28	0.166
Mof_C 	C 	0.81435	0.9935	0.26745	0.045
Mof_O 	O 	0.90545	0.9974	0.17075	-0.374
Mof_Zr	Zr	0.5	0.5	0.1204	3.212
Mof_H 	H 	0.99355	0.13555	0.72	0.061
Mof_C 	C 	0.9935	0.18565	0.73255	0.029
Mof_O 	O 	0.9974	0.09455	0.82925	-0.564
Mof_Zr	Zr	0.5	0.5	0.8796	3.208
Mof_H 	H 	0.13555	0.00645	0.28	-0.097
Mof_C 	C 	0.18565	0.0065	0.26745	-0.024
Mof_O 	O 	0.09455	0.0026	0.17075	-0.918
Mof_H 	H 	0.00645	0.86445	0.72	0.028
Mof_C 	C 	0.0065	0.81435	0.73255	-0.028
Mof_O 	O 	0.0026	0.90545	0.82925	-0.693
Mof_H 	H 	0.86445	0.00645	0.72	0.028
Mof_C 	C 	0.81435	0.0065	0.73255	-0.028
Mof_O 	O 	0.90545	0.0026	0.82925	-0.693
Mof_H 	H 	0.00645	0.13555	0.28	-0.097
Mof_C 	C 	0.0065	0.18565	0.26745	-0.024
Mof_O 	O 	0.0026	0.09455	0.17075	-0.918
Mof_H 	H 	0.13555	0.99355	0.72	0.061
Mof_C 	C 	0.18565	0.9935	0.73255	0.029
Mof_O 	O 	0.09455	0.9974	0.82925	-0.564
Mof_H 	H 	0.99355	0.86445	0.28	0.166
Mof_C 	C 	0.9935	0.81435	0.26745	0.045
Mof_O 	O 	0.9974	0.90545	0.17075	-0.374
Mof_H 	H 	0.78	0.86445	0.49355	0.12
Mof_C 	C 	0.76745	0.81435	0.4935	0.031
Mof_O 	O 	0.67075	0.90545	0.4974	-0.534
Mof_C 	C 	0.65235	0.65235	0.0041	0.499
Mof_H 	H 	0.78	0.13555	0.50645	0.002
Mof_C 	C 	0.76745	0.18565	0.5065	0.021
Mof_O 	O 	0.67075	0.09455	0.5026	-0.746
Mof_C 	C 	0.65235	0.34765	0.9959	0.477
Mof_H 	H 	0.13555	0.22	0.49355	-0.041
Mof_C 	C 	0.18565	0.23255	0.4935	-0.015
Mof_O 	O 	0.09455	0.32925	0.4974	-0.759
Mof_C 	C 	0.34765	0.34765	0.0041	0.488
Mof_H 	H 	0.22	0.86445	0.50645	0.073
Mof_C 	C 	0.23255	0.81435	0.5065	-0.013
Mof_O 	O 	0.32925	0.90545	0.5026	-0.55
Mof_C 	C 	0.34765	0.65235	0.9959	0.477
Mof_H 	H 	0.86445	0.78	0.49355	0.12
Mof_C 	C 	0.81435	0.76745	0.4935	0.031
Mof_O 	O 	0.90545	0.67075	0.4974	-0.534
Mof_H 	H 	0.22	0.13555	0.49355	-0.041
Mof_C 	C 	0.23255	0.18565	0.4935	-0.015
Mof_O 	O 	0.32925	0.09455	0.4974	-0.759
Mof_H 	H 	0.13555	0.78	0.50645	0.002
Mof_C 	C 	0.18565	0.76745	0.5065	0.021
Mof_O 	O 	0.09455	0.67075	0.5026	-0.746
Mof_H 	H 	0.86445	0.22	0.50645	0.073
Mof_C 	C 	0.81435	0.23255	0.5065	-0.013
Mof_O 	O 	0.90545	0.32925	0.5026	-0.55
